<configuration>
	<input>
		<net-file value="k0001.net.xml"/>
		<gui-settings-file value="k0001.gui.cfg"/>
		<route-files value="k0001.rou.xml"/>
		<additional-files value="k0001.det.xml,k0001.poly.xml,k0001.addEdge.xml,k0001.addLane.xml"/>
	</input>
	<time>
        <begin value="0"/>
		<step-length value="0.1"/>
	</time>
</configuration>