<?xml version="1.0" encoding="UTF-8"?>

<!-- generated on 09/27/16 14:27:41 by SUMO polyconvert Version 0.27.1
<?xml version="1.0" encoding="UTF-8"?>

<configuration xmlns:xsi="http://www.w3.org/2001/XMLSchema-instance" xsi:noNamespaceSchemaLocation="http://sumo.dlr.de/xsd/polyconvertConfiguration.xsd">

    <input>
        <net-file value="k0001.net.xml"/>
        <osm-files value="k0001.osm"/>
        <type-file value="k0001.typemap.xml"/>
    </input>

    <output>
        <output-file value="k0001.poly.xml"/>
    </output>

    <processing>
        <poi-layer-offset value="5"/>
    </processing>

</configuration>
-->

<additional xmlns:xsi="http://www.w3.org/2001/XMLSchema-instance" xsi:noNamespaceSchemaLocation="http://sumo.dlr.de/xsd/additional_file.xsd">
    <location netOffset="-610837.31,-5801296.26" convBoundary="-2360.08,-1380.08,3099.34,4165.96" origBoundary="4.592468,52.338198,4.673968,52.388140" projParameter="+proj=utm +zone=31 +ellps=WGS84 +datum=WGS84 +units=m +no_defs"/>

    <poly id="101355695" type="water" color="181,209,209" fill="0" layer="-4.00" shape="885.06,-1311.50 863.60,-1229.03 856.48,-1140.94 878.35,-1025.19 921.22,-932.32 955.53,-736.43 935.91,-645.35 905.53,-514.76 903.93,-427.65 904.09,-305.85 887.45,-152.35 884.95,-58.33 868.86,6.57 813.14,77.87 742.40,151.01 686.65,207.72 625.16,281.10 589.60,361.57 566.56,410.99 527.25,519.15 519.99,546.66 514.95,600.77 523.40,654.29 554.20,731.18 616.51,836.49 652.93,906.58 667.90,939.36 681.26,995.08 675.99,1047.64 663.12,1086.17 616.19,1192.70"/>
    <poly id="101456872" type="water" color="181,209,209" fill="0" layer="-4.00" shape="625.16,281.10 596.08,269.11 505.83,202.89 402.12,133.83 261.29,41.32 238.28,24.40 224.00,9.13 198.23,-31.56 156.63,-99.58 118.34,-168.63 105.93,-185.68 97.46,-195.31 92.58,-200.85 37.94,-268.71 -11.08,-314.12 -58.26,-361.85 -92.16,-398.71"/>
    <poly id="103064107" type="forest" color="140,196,107" fill="1" layer="-3.00" shape="619.55,625.64 615.14,627.21 611.58,631.28 609.52,638.03 610.16,642.52 613.67,647.61 616.23,649.82 625.74,655.64 641.10,667.18 647.27,671.32 653.14,676.49 657.84,677.17 660.98,677.27 669.01,672.82 675.52,674.07 688.52,677.90 702.43,678.11 723.76,675.94 728.28,673.99 730.20,671.68 730.04,667.61 706.80,671.03 690.40,670.21 674.81,671.17 662.59,668.11 649.59,662.12 641.56,656.28 631.96,645.08 621.84,631.24 619.55,625.64"/>
    <poly id="103064599" type="forest" color="140,196,107" fill="1" layer="-3.00" shape="134.10,635.26 163.19,621.09 215.45,596.43 261.54,574.16 265.63,571.89 265.51,570.75 263.19,566.46 236.94,578.82 153.60,619.18 125.30,632.31 128.00,634.74 130.56,635.45 134.10,635.26"/>
    <poly id="103064922" type="forest" color="140,196,107" fill="1" layer="-3.00" shape="324.72,316.02 323.12,313.16 320.83,311.39 317.45,311.10 314.60,311.93 301.21,318.50 321.33,318.94 321.87,319.71 320.49,361.62 319.51,362.71 297.52,361.99 296.40,407.50 275.14,407.17 273.92,449.96 255.29,450.09 253.80,495.03 262.04,495.27 280.90,449.53 287.79,434.63 295.64,419.07 308.18,398.38 313.93,386.46 321.86,376.81 333.69,366.49 334.90,363.88 335.01,360.69 335.56,355.46 334.79,353.34 330.44,332.37 327.71,323.19 324.72,316.02"/>
    <poly id="103064999" type="forest" color="140,196,107" fill="1" layer="-3.00" shape="562.71,612.23 564.82,625.87 569.42,653.22 575.44,674.52 585.63,699.02 598.60,722.68 607.07,736.77 615.21,751.61 626.78,770.74 638.43,789.13 640.27,785.76 641.31,781.04 640.26,776.84 637.74,771.98 637.13,771.17 629.19,760.69 611.07,733.03 597.25,707.94 585.09,678.50 578.63,660.87 572.27,640.77 569.33,628.14 566.83,620.43 562.71,612.23"/>
    <poly id="103065017" type="water" color="181,209,209" fill="1" layer="-4.00" shape="118.13,555.58 111.88,513.70 100.98,435.22 95.56,394.87 92.96,370.86 90.89,342.29 91.15,328.92 91.72,317.28 92.90,309.78 96.26,299.55 105.64,277.47 114.57,257.78 119.00,248.72 119.61,247.79 115.47,247.47 108.86,248.01 101.83,250.05 98.95,251.84 95.43,256.03 93.07,259.36 89.99,267.08 86.82,277.32 83.33,291.87 80.38,307.21 78.30,324.64 77.08,338.74 76.89,350.11 77.62,362.36 78.93,379.91 80.77,398.04 82.97,417.12 85.22,434.42 93.73,490.03 108.20,581.82 109.09,583.73 111.42,587.00 113.27,588.00 115.14,588.24 117.99,587.59 120.22,586.75 132.24,577.71 134.79,574.60 135.47,571.21 134.81,568.20 132.25,566.05 126.25,565.29 122.13,564.58 120.10,563.37 119.03,561.64 118.13,555.58"/>
    <poly id="103065039" type="landuse" color="194,194,130" fill="1" layer="-3.00" shape="119.61,247.79 127.77,233.47 113.31,233.09 109.64,232.84 106.64,233.46 100.76,235.73 95.01,239.20 92.25,242.58 89.39,249.12 84.98,261.91 81.57,275.05 75.85,303.09 74.28,315.33 73.02,343.45 73.55,372.70 74.16,384.16 76.41,406.43 83.15,458.11 85.34,477.06 89.18,501.23 93.75,528.45 100.50,564.96 106.33,593.98 107.06,596.38 108.63,597.63 110.68,598.06 115.57,598.23 122.62,595.46 155.80,579.42 156.63,557.26 118.13,555.58 119.03,561.64 120.10,563.37 122.13,564.58 126.25,565.29 132.25,566.05 134.81,568.20 135.47,571.21 134.79,574.60 132.24,577.71 120.22,586.75 117.99,587.59 115.14,588.24 113.27,588.00 111.42,587.00 109.09,583.73 108.20,581.82 93.73,490.03 85.22,434.42 82.97,417.12 80.77,398.04 78.93,379.91 77.62,362.36 76.89,350.11 77.08,338.74 78.30,324.64 80.38,307.21 83.33,291.87 86.82,277.32 89.99,267.08 93.07,259.36 95.43,256.03 98.95,251.84 101.83,250.05 108.86,248.01 115.47,247.47 119.61,247.79"/>
    <poly id="103065263" type="water" color="181,209,209" fill="1" layer="-4.00" shape="878.72,175.23 875.46,190.22 868.38,194.21 854.57,196.19 838.12,193.96 825.07,191.15 808.07,185.55 799.77,181.91 791.16,175.28 785.50,171.16 781.69,168.40 782.74,166.50 792.22,155.36 803.38,143.92 810.92,140.13 828.14,128.88 843.72,116.27 859.72,101.29 874.49,82.89 884.38,69.06 894.34,53.20 905.51,31.34 914.14,9.52 925.36,-29.03 932.33,-52.25 933.71,-64.36 934.09,-76.05 931.17,-90.73 921.52,-122.65 917.51,-133.98 915.44,-144.77 914.93,-158.89 916.16,-166.63 919.49,-179.18 924.59,-200.90 925.12,-216.95 928.43,-229.00 930.90,-232.60 931.94,-232.55 955.76,-231.51 956.33,-248.65 956.52,-254.37 953.57,-254.47 951.16,-254.54 949.29,-241.95 935.66,-241.42 938.82,-285.71 940.75,-285.49 941.40,-295.04 940.07,-295.11 939.94,-340.35 936.47,-385.86 935.74,-413.58 936.19,-436.95 938.15,-456.67 940.62,-471.44 943.69,-484.53 943.58,-491.10 941.70,-504.04 943.74,-505.94 946.69,-505.50 951.56,-503.37 952.35,-507.31 957.73,-510.42 995.36,-512.15 1004.73,-516.47 982.68,-517.51 957.25,-516.06 948.14,-514.40 942.18,-513.46 941.01,-513.29 936.52,-517.06 934.38,-522.07 931.44,-533.05 931.18,-547.50 933.64,-553.79 937.07,-561.37 943.08,-568.84 949.86,-580.73 959.57,-604.08 964.25,-619.90 970.58,-637.58 981.27,-661.19 987.74,-673.43 994.73,-685.29 997.55,-690.05 1006.54,-701.26 1016.50,-712.43 1023.19,-721.50 1026.26,-727.46 1028.31,-732.11 1027.09,-742.75 1021.20,-753.92 1011.08,-774.89 1000.83,-799.27 994.13,-816.87 986.41,-841.47 981.18,-865.06 978.09,-886.32 975.96,-907.90 976.38,-930.37 980.56,-961.21 978.24,-967.60 975.92,-971.71 973.49,-975.70 971.90,-977.41 930.71,-1021.97 926.44,-1027.52 920.18,-1040.10 906.00,-1076.80 897.83,-1101.58 884.76,-1144.84 883.42,-1156.64 883.16,-1169.43 885.23,-1190.44 889.58,-1207.21 904.04,-1237.46 903.18,-1242.02 902.87,-1243.72 903.57,-1254.42 907.29,-1262.58 914.15,-1271.67 922.93,-1276.22 935.79,-1278.56 940.95,-1278.04 950.13,-1277.73 998.52,-1264.76 1073.48,-1245.84 1143.36,-1227.93 1141.22,-1222.42 1145.21,-1221.24 1149.19,-1220.06 1150.83,-1226.01 1165.34,-1222.30 1184.06,-1217.25 1197.45,-1213.62 1235.47,-1204.42 1303.91,-1186.63 1317.52,-1183.21 1342.86,-1176.84 1360.11,-1171.83 1380.48,-1165.47 1398.51,-1160.46 1434.95,-1146.17 1455.13,-1134.71 1474.42,-1125.05 1500.11,-1111.76 1521.81,-1099.51 1545.23,-1083.51 1574.71,-1062.31 1616.91,-1030.41 1633.03,-1019.28 1675.81,-987.26 1731.69,-946.09 1750.56,-932.37 1757.59,-925.17 1758.45,-924.29 1760.79,-919.97 2055.18,-696.61 2296.93,-523.35 2300.82,-523.23 2318.55,-510.55 2390.58,-457.90 2499.99,-375.64 2570.81,-322.73 2614.65,-290.17 2700.22,-227.26 2724.29,-209.24 2811.52,-146.35 2996.32,-9.51 3007.26,-1.68 3023.86,-37.24 2943.86,-96.87 2835.83,-178.11 2710.03,-270.67 2605.40,-346.93 2588.33,-359.41 2573.57,-370.43 2550.90,-387.37 2463.58,-452.62 2409.41,-491.10 2355.16,-531.16 2240.20,-614.14 2188.92,-652.44 2121.24,-703.85 1881.88,-881.52 1804.64,-939.12 1770.89,-964.30 1634.25,-1065.63 1603.91,-1089.05 1574.74,-1110.23 1547.47,-1132.61 1525.27,-1147.94 1477.85,-1172.54 1450.86,-1184.35 1424.75,-1194.84 1398.85,-1203.82 1339.17,-1218.97 992.94,-1305.96 900.48,-1329.52 897.66,-1327.14 866.12,-1334.93 865.29,-1337.71 830.57,-1347.24 827.25,-1348.13 800.76,-1354.25 733.57,-1371.29 698.97,-1380.08 694.99,-1360.90 690.03,-1339.34 741.75,-1325.75 795.84,-1312.50 801.15,-1310.22 805.46,-1306.32 810.42,-1300.31 813.03,-1294.36 815.06,-1291.35 817.08,-1289.69 820.42,-1287.39 822.82,-1286.21 825.62,-1285.75 827.66,-1284.83 829.56,-1283.18 831.05,-1280.51 832.37,-1276.30 833.22,-1272.25 833.35,-1268.96 833.27,-1268.27 832.85,-1264.82 832.14,-1261.90 830.86,-1260.00 829.62,-1259.30 827.56,-1259.49 825.88,-1260.54 823.84,-1261.33 822.36,-1261.38 821.12,-1260.70 820.24,-1259.61 820.04,-1257.54 820.35,-1255.69 821.47,-1252.75 828.39,-1236.83 829.01,-1233.37 829.10,-1228.74 827.29,-1218.05 824.90,-1212.52 822.15,-1206.74 822.34,-1205.05 823.61,-1202.78 824.36,-1199.47 823.50,-1173.43 822.84,-1168.33 821.27,-1161.48 818.67,-1152.90 816.25,-1146.26 812.90,-1140.77 809.95,-1137.40 806.91,-1133.53 805.86,-1130.56 807.02,-1126.96 808.92,-1124.77 812.15,-1123.17 812.39,-1120.53 812.34,-1113.96 812.08,-1111.20 810.19,-1103.53 808.34,-1097.22 808.98,-1091.94 811.24,-1090.71 815.52,-1090.79 817.49,-1091.48 819.06,-1090.80 819.48,-1088.98 818.93,-1086.90 815.35,-1081.89 812.81,-1079.16 812.26,-1076.99 812.31,-1071.23 812.09,-1068.08 811.11,-1065.29 810.20,-1063.00 808.08,-1061.99 801.51,-1058.19 794.04,-1056.47 757.82,-1056.23 641.07,-1070.74 637.36,-1071.25 630.31,-1071.17 623.69,-1067.69 615.44,-1059.69 610.19,-1054.83 604.72,-1057.08 592.88,-1063.15 579.15,-1068.33 570.85,-1071.10 567.81,-1075.20 565.22,-1078.88 564.22,-1083.20 551.86,-1072.39 549.65,-1070.46 556.52,-1063.70 564.72,-1057.26 571.31,-1053.11 577.48,-1050.25 590.08,-1044.65 597.89,-1043.55 600.93,-1042.32 604.77,-1039.69 606.36,-1037.10 605.10,-1032.68 602.14,-1028.00 594.36,-1021.81 589.54,-1019.71 587.40,-1019.10 582.75,-1017.72 566.98,-1017.12 530.86,-1016.33 515.47,-1016.85 511.31,-1018.11 507.15,-1019.65 504.42,-1021.68 500.75,-1026.46 492.54,-1019.14 491.35,-1007.82 491.20,-1003.36 491.70,-1001.37 493.61,-999.63 496.11,-998.98 497.80,-999.20 501.47,-1000.21 510.01,-1004.14 522.90,-1004.25 550.64,-1004.18 565.19,-1003.42 575.22,-1002.00 580.23,-1000.71 582.97,-998.92 587.10,-996.82 589.52,-993.93 591.32,-990.62 595.09,-991.30 597.14,-992.24 596.37,-997.64 595.07,-1000.49 595.13,-1002.43 596.93,-1006.03 605.64,-1015.28 612.96,-1024.57 615.38,-1030.09 620.66,-1037.19 627.05,-1043.99 633.30,-1046.88 638.38,-1047.83 644.54,-1047.91 656.56,-1047.21 740.22,-1037.37 769.02,-1034.79 797.83,-1027.31 823.91,-1027.42 827.14,-1024.26 828.91,-1013.79 831.60,-1001.80 837.71,-991.50 838.31,-984.47 839.78,-977.70 842.88,-970.04 844.10,-955.99 846.79,-952.80 849.87,-952.42 858.61,-954.38 861.40,-953.73 862.69,-950.31 863.75,-931.52 866.09,-926.09 869.88,-921.78 874.58,-911.81 873.77,-904.28 874.74,-899.20 879.21,-890.66 880.89,-882.18 881.90,-870.36 881.19,-856.95 880.73,-843.21 881.43,-827.59 882.13,-820.46 885.31,-813.86 885.19,-810.17 882.60,-797.25 878.99,-781.62 879.13,-776.36 882.12,-773.17 884.51,-770.93 888.16,-768.94 890.18,-764.55 890.96,-760.19 890.75,-753.71 886.03,-732.52 886.49,-727.88 886.23,-719.86 886.18,-709.04 889.36,-702.44 892.60,-697.39 894.38,-685.73 894.60,-673.65 894.11,-668.11 892.21,-663.67 885.21,-650.18 881.85,-634.18 879.10,-625.62 876.81,-612.10 874.74,-605.97 870.85,-600.26 868.81,-594.75 868.60,-588.57 868.67,-581.14 869.29,-571.54 867.46,-563.26 863.17,-554.75 858.25,-546.56 854.04,-541.98 852.17,-539.94 848.11,-538.86 845.59,-537.01 843.68,-535.59 836.44,-531.49 707.07,-611.97 702.20,-613.29 699.31,-613.38 692.34,-612.74 636.92,-598.38 557.60,-577.70 558.05,-572.53 558.43,-567.73 601.58,-579.32 696.41,-604.36 700.46,-604.22 707.32,-601.96 712.42,-598.54 729.39,-587.07 830.23,-520.27 854.93,-503.90 859.98,-495.49 864.47,-481.89 868.53,-464.12 871.17,-450.76 872.78,-434.01 872.97,-411.59 872.53,-379.43 868.18,-331.96 864.16,-303.96 858.30,-271.55 857.55,-264.26 855.60,-245.66 855.37,-220.01 854.49,-202.71 855.67,-182.29 852.10,-149.30 845.90,-129.59 842.62,-114.54 840.26,-99.46 839.51,-85.88 838.29,-76.95 832.56,-62.64 828.57,-54.10 822.22,-20.93 818.23,-12.40 817.01,-3.47 809.12,10.65 788.35,40.57 773.47,60.81 752.51,87.00 729.75,111.92 699.82,142.79 687.97,155.37 672.87,172.81 667.10,179.09 661.35,184.47 659.03,189.36 655.45,195.08 651.14,203.61 646.48,213.68 641.19,224.32 636.31,231.56 625.44,242.65 614.03,251.24 606.51,254.40 600.01,254.50 590.76,253.89 583.49,249.29 576.58,243.20 569.40,236.17 565.25,230.48 557.39,215.99 553.33,207.82 545.51,201.38 542.51,201.28 540.25,201.51 539.55,203.96 538.40,210.73 538.34,212.58 536.77,213.15 489.75,181.59 412.97,129.29 348.69,86.52 326.33,71.25 300.61,54.31 277.05,37.77 257.15,22.58 245.10,12.93 231.66,-1.15 222.43,-11.95 213.60,-25.37 191.96,-62.57 176.19,-88.66 145.53,-138.07 150.77,-141.99 156.93,-137.76 173.45,-148.21 162.69,-164.63 146.01,-152.71 148.59,-148.09 142.67,-144.20 122.05,-182.98 112.93,-196.89 107.72,-204.27 103.77,-209.88 87.56,-229.61 52.50,-268.93 9.63,-313.96 -67.32,-401.70 -92.71,-428.94 -99.52,-426.14 -182.27,-533.09 -192.97,-528.25 -112.29,-421.94 -197.05,-392.11 -193.70,-330.04 -131.95,-351.68 -94.25,-364.90 -91.55,-365.28 -87.99,-364.26 -66.73,-342.01 3.63,-270.54 5.74,-266.44 6.57,-264.16 6.04,-261.93 2.82,-259.35 -3.11,-256.38 -199.19,-192.21 -198.50,-171.68 -88.39,-208.27 -3.24,-237.48 29.12,-248.07 62.73,-214.65 70.61,-207.43 99.72,-161.09 146.61,-82.35 184.98,-19.23 195.10,-2.85 203.05,8.07 210.08,16.40 223.35,30.19 232.00,37.78 242.22,45.22 259.61,57.26 418.57,163.30 447.53,182.79 446.95,184.72 445.54,189.50 440.26,199.09 439.84,200.17 439.43,218.94 439.81,225.08 442.80,230.31 445.46,233.56 449.53,236.06 452.47,236.75 486.78,238.88 488.78,238.36 490.61,236.82 498.85,226.63 501.86,224.94 504.86,224.07 507.81,224.55 511.52,225.86 513.98,228.91 514.97,229.13 560.03,258.59 572.79,267.20 576.42,270.89 579.62,275.75 581.83,280.57 583.02,286.33 583.27,290.87 582.75,294.63 581.40,299.72 577.45,305.62 550.40,357.77 568.99,366.52 606.47,384.60 615.04,367.45 626.92,344.58 639.38,324.46 652.16,304.96 661.37,291.45 676.15,272.40 693.01,251.69 707.35,236.01 729.31,213.78 745.27,200.14 768.45,182.06 777.73,175.43 779.72,176.21 782.39,177.27 788.91,181.11 799.27,186.61 800.47,187.08 810.59,191.02 850.34,201.77 859.06,203.09 859.38,209.98 854.92,249.15 848.25,258.86 850.40,259.05 858.17,252.05 867.26,199.64 878.30,196.05 882.62,177.11 884.35,172.38 886.41,172.59 897.51,173.26 905.55,174.91 918.25,178.01 927.28,180.00 939.37,181.40 1038.38,183.36 1051.73,185.45 1058.17,189.14 1059.55,190.80 1069.86,182.77 1078.99,179.38 1084.36,179.62 1084.99,170.81 1097.76,171.51 1097.20,180.16 1096.91,182.82 1102.77,183.32 1102.27,171.14 1101.65,168.52 1075.93,166.55 1065.49,166.21 1059.94,166.84 1048.66,172.84 1041.69,174.86 947.26,172.22 928.59,171.26 915.50,169.48 883.22,164.64 880.13,171.53 878.72,175.23"/>
    <poly id="103065624" type="landuse" color="194,194,130" fill="1" layer="-3.00" shape="600.45,399.36 598.80,403.16 603.67,405.41 605.39,401.68 600.45,399.36"/>
    <poly id="103065642" type="landuse" color="194,194,130" fill="1" layer="-3.00" shape="234.49,284.60 232.51,325.67 207.30,324.84 205.37,364.35 216.57,364.73 217.30,342.61 245.96,343.24 247.24,304.34 271.84,304.84 272.47,285.85 234.49,284.60"/>
    <poly id="103065786" type="landuse" color="194,194,130" fill="1" layer="-3.00" shape="603.67,405.41 588.64,438.99 580.52,464.39 571.92,486.24 569.27,496.06 561.80,512.35 560.69,516.91 561.62,517.91 567.13,518.00 570.98,519.10 573.51,513.61 580.32,502.67 585.96,491.73 591.46,476.19 592.98,465.95 595.39,454.91 599.21,445.94 605.41,435.85 614.92,414.44 616.64,411.40 603.67,405.41"/>
    <poly id="103066225" type="landuse" color="194,194,130" fill="1" layer="-3.00" shape="612.10,387.05 610.62,390.29 624.80,397.01 626.53,393.95 612.10,387.05"/>
    <poly id="103066923" type="landuse" color="194,194,130" fill="1" layer="-3.00" shape="554.64,541.94 553.32,547.43 552.53,562.34 550.27,593.15 551.81,613.43 554.49,638.03 565.78,667.85 572.68,689.81 579.77,706.17 594.98,733.68 609.61,759.17 636.38,804.26 653.55,833.80 667.65,857.47 669.41,858.15 672.70,857.35 678.51,853.61 647.51,800.60 646.02,800.54 638.43,789.13 626.78,770.74 615.21,751.61 607.07,736.77 598.60,722.68 585.63,699.02 575.44,674.52 569.42,653.22 564.82,625.87 562.71,612.23 560.77,600.06 559.74,585.34 559.90,561.81 557.74,553.17 554.64,541.94"/>
    <poly id="103067104" type="landuse" color="194,194,130" fill="1" layer="-3.00" shape="610.62,390.29 605.39,401.68 618.63,407.91 624.80,397.01 610.62,390.29"/>
    <poly id="103067289" type="landuse" color="194,194,130" fill="1" layer="-3.00" shape="443.96,244.65 434.49,236.77 430.38,231.35 428.55,227.01 429.11,190.08 427.27,185.39 424.47,180.67 418.69,175.86 409.77,169.77 409.08,175.82 410.25,179.33 414.94,186.04 415.92,189.36 416.66,196.80 415.53,230.99 414.29,255.99 443.54,257.26 443.96,244.65"/>
    <poly id="103067396" type="water" color="181,209,209" fill="1" layer="-4.00" shape="810.37,451.46 809.64,448.59 804.02,441.09 791.84,428.07 786.82,419.99 780.93,403.04 776.77,395.59 764.37,380.20 752.97,369.86 723.12,349.92 718.19,348.00 713.83,346.68 707.39,346.47 700.61,347.15 695.89,348.15 681.71,355.31 665.63,362.72 656.36,367.69 646.17,374.39 638.01,381.48 628.63,390.25 626.53,393.95 636.35,398.64 659.00,408.49 681.65,417.39 700.53,423.80 729.49,432.73 756.75,440.12 785.50,446.71 810.37,451.46"/>
    <poly id="103067752" type="forest" color="140,196,107" fill="1" layer="-3.00" shape="616.02,603.48 616.46,590.00 615.40,577.64 611.32,567.81 602.89,556.68 591.79,548.32 585.69,551.43 583.84,552.75 581.51,555.14 580.31,557.13 580.22,559.63 580.82,562.12 582.31,564.89 584.73,566.78 588.31,568.03 590.98,569.23 592.52,570.64 593.81,572.27 594.43,574.11 594.11,577.03 593.33,580.17 591.90,582.36 589.58,584.32 587.22,587.19 586.67,590.10 587.48,593.07 588.78,594.92 592.91,599.57 598.25,602.24 607.03,603.19 616.02,603.48"/>
    <poly id="103067964" type="water" color="181,209,209" fill="1" layer="-4.00" shape="550.40,357.77 549.00,361.12 605.44,387.84 606.47,384.60 568.99,366.52 550.40,357.77"/>
    <poly id="103068225" type="water" color="181,209,209" fill="1" layer="-4.00" shape="626.53,393.95 624.80,397.01 657.44,412.47 680.23,421.60 699.16,428.00 728.26,437.00 755.68,444.44 784.59,451.05 811.57,456.19 810.37,451.46 785.50,446.71 756.75,440.12 729.49,432.73 700.53,423.80 681.65,417.39 659.00,408.49 636.35,398.64 626.53,393.95"/>
    <poly id="103068353" type="forest" color="140,196,107" fill="1" layer="-3.00" shape="349.54,309.06 358.94,321.28 368.88,332.23 374.14,336.00 378.75,336.53 381.24,336.39 382.39,336.34 386.38,335.15 398.43,329.93 407.11,326.93 425.40,322.26 437.98,321.00 442.28,320.78 445.58,320.60 456.13,320.60 465.99,321.59 476.17,323.27 489.86,328.32 502.75,334.27 521.24,339.30 537.02,351.25 538.16,348.96 545.89,353.05 548.09,349.69 506.83,328.03 502.26,322.35 501.25,318.78 482.52,318.19 482.72,310.85 446.92,309.89 351.66,307.94 350.00,308.19 349.54,309.06"/>
    <poly id="103068699" type="landuse" color="194,194,130" fill="1" layer="-3.00" shape="605.44,387.84 600.45,399.36 605.39,401.68 610.62,390.29 605.44,387.84"/>
    <poly id="103069172" type="water" color="181,209,209" fill="1" layer="-4.00" shape="562.85,538.09 571.77,539.50 586.86,544.40 591.79,548.32 602.89,556.68 611.32,567.81 615.40,577.64 616.46,590.00 616.02,603.48 615.95,605.54 617.24,619.97 619.55,625.64 621.84,631.24 631.96,645.08 641.56,656.28 649.59,662.12 662.59,668.11 674.81,671.17 690.40,670.21 706.80,671.03 730.04,667.61 747.19,665.33 763.31,665.86 776.44,668.05 785.80,668.95 804.98,665.49 827.21,658.87 842.89,654.99 847.17,652.34 849.62,650.80 854.82,644.53 858.76,640.85 869.21,635.31 875.28,629.35 882.29,621.09 888.89,616.59 893.69,613.83 899.41,609.30 904.27,604.18 906.29,596.34 905.36,579.86 905.54,574.58 908.34,569.70 913.20,564.86 917.92,562.61 908.96,547.68 887.08,560.47 870.06,573.73 864.70,576.46 861.14,577.52 854.70,577.03 849.81,573.94 845.25,569.97 839.10,560.66 832.27,545.47 826.92,529.72 821.32,512.81 817.96,498.64 817.39,489.52 815.06,475.12 793.60,470.05 764.24,463.76 737.56,457.25 716.18,451.23 693.37,443.66 674.40,436.76 649.50,426.65 616.64,411.40 614.92,414.44 605.41,435.85 599.21,445.94 595.39,454.91 592.98,465.95 591.46,476.19 585.96,491.73 580.32,502.67 573.51,513.61 570.98,519.10 567.13,518.00 562.85,538.09"/>
    <poly id="103069326" type="landuse" color="194,194,130" fill="1" layer="-3.00" shape="606.47,384.60 605.44,387.84 610.62,390.29 612.10,387.05 606.47,384.60"/>
    <poly id="103069368" type="landuse" color="194,194,130" fill="1" layer="-3.00" shape="434.85,195.74 434.86,204.93 434.49,223.42 436.42,231.30 439.90,236.76 443.23,239.30 449.20,242.20 485.17,244.35 492.23,244.34 496.90,243.02 499.14,241.40 510.18,230.32 512.80,229.00 513.98,228.91 511.52,225.86 507.81,224.55 504.86,224.07 501.86,224.94 498.85,226.63 490.61,236.82 488.78,238.36 486.78,238.88 452.47,236.75 449.53,236.06 445.46,233.56 442.80,230.31 439.81,225.08 439.43,218.94 439.84,200.17 440.26,199.09 445.54,189.50 446.95,184.72 447.53,182.79 418.57,163.30 425.51,171.01 430.69,176.31 432.73,181.00 434.84,190.58 434.85,195.74"/>
    <poly id="103070057" type="landuse" color="194,194,130" fill="1" layer="-3.00" shape="729.30,-244.68 740.54,-189.76 649.66,-173.07 645.80,-171.97 641.56,-170.77 638.98,-170.01 591.16,-159.75 629.45,9.18 624.39,9.39 624.95,13.87 581.88,15.86 491.33,20.07 487.59,20.50 484.82,20.04 481.88,19.01 478.55,18.52 475.83,18.61 480.70,33.16 491.58,62.71 502.27,89.39 523.68,141.59 542.22,184.43 540.70,187.94 542.51,201.28 545.51,201.38 553.33,207.82 557.39,215.99 565.25,230.48 569.40,236.17 576.58,243.20 583.49,249.29 590.76,253.89 600.01,254.50 606.51,254.40 614.03,251.24 625.44,242.65 636.31,231.56 641.19,224.32 646.48,213.68 651.14,203.61 655.45,195.08 659.03,189.36 661.35,184.47 667.10,179.09 672.87,172.81 687.97,155.37 699.82,142.79 729.75,111.92 752.51,87.00 773.47,60.81 788.35,40.57 809.12,10.65 817.01,-3.47 818.23,-12.40 822.22,-20.93 828.57,-54.10 832.56,-62.64 838.29,-76.95 839.51,-85.88 840.26,-99.46 842.62,-114.54 845.90,-129.59 852.10,-149.30 855.67,-182.29 854.49,-202.71 855.37,-220.01 855.60,-245.66 857.55,-264.26 842.56,-263.65 792.33,-261.52 726.63,-257.77 728.07,-250.70 729.30,-244.68"/>
    <poly id="103070215" type="water" color="181,209,209" fill="1" layer="-4.00" shape="368.16,655.46 363.89,644.34 351.73,650.31 355.89,661.52 368.16,655.46"/>
    <poly id="103070921" type="landuse" color="194,194,130" fill="1" layer="-3.00" shape="567.21,312.90 572.85,302.35 574.05,296.14 573.24,290.49 571.16,283.82 569.01,278.81 565.85,274.43 561.39,269.66 551.41,262.39 536.44,253.29 535.73,266.71 538.81,270.91 542.24,273.36 547.67,277.64 545.15,318.57 537.37,318.16 510.69,317.28 500.72,316.92 501.25,318.78 502.26,322.35 506.83,328.03 548.09,349.69 567.21,312.90"/>
    <poly id="103071020" type="landuse" color="194,194,130" fill="1" layer="-3.00" shape="660.68,309.38 664.43,303.69 678.17,284.35 695.84,262.34 701.34,256.92 711.48,245.00 733.06,224.64 750.38,210.40 781.51,186.13 788.91,181.11 782.39,177.27 779.72,176.21 729.18,219.82 715.16,235.87 700.22,251.03 673.59,281.85 661.43,297.77 653.06,313.23 635.59,340.00 625.09,358.28 612.10,387.05 626.53,393.95 628.63,390.25 638.01,381.48 646.17,374.39 656.36,367.69 665.63,362.72 681.71,355.31 695.89,348.15 700.61,347.15 707.39,346.47 713.83,346.68 718.19,348.00 723.12,349.92 752.97,369.86 764.37,380.20 776.77,395.59 780.93,403.04 786.82,419.99 791.84,428.07 804.02,441.09 809.64,448.59 810.37,451.46 833.10,455.37 845.19,456.36 851.86,456.46 851.43,451.07 852.74,414.72 840.63,414.01 824.67,412.61 815.17,409.39 803.50,401.71 793.85,394.40 774.12,374.83 767.58,370.24 760.45,365.66 742.72,356.35 730.98,350.43 713.49,342.57 695.98,335.58 685.00,332.91 677.74,332.67 672.48,333.34 668.05,334.94 665.65,337.49 656.46,351.16 654.68,352.26 652.65,352.20 649.48,351.21 639.15,344.75 652.80,321.34 660.68,309.38"/>
    <poly id="103071100" type="landuse" color="194,194,130" fill="1" layer="-3.00" shape="561.80,512.35 569.27,496.06 571.92,486.24 580.52,464.39 588.64,438.99 603.67,405.41 598.80,403.16 585.58,434.67 569.91,480.17 561.80,512.35"/>
    <poly id="103071276" type="water" color="181,209,209" fill="1" layer="-4.00" shape="543.02,372.43 541.00,376.27 598.80,403.16 600.45,399.36 543.02,372.43"/>
    <poly id="103071978" type="water" color="181,209,209" fill="1" layer="-4.00" shape="549.00,361.12 543.02,372.43 600.45,399.36 605.44,387.84 549.00,361.12"/>
    <poly id="103072612" type="water" color="181,209,209" fill="1" layer="-4.00" shape="351.73,650.31 330.79,660.84 235.55,707.72 198.32,726.54 193.16,728.71 189.28,729.77 185.93,729.82 181.78,728.83 167.40,724.20 156.04,718.79 153.26,716.71 150.70,713.43 148.50,709.36 145.52,698.22 133.74,644.49 132.79,643.28 131.04,642.72 128.80,642.49 125.12,642.72 124.09,643.34 122.72,644.64 121.80,646.95 129.77,699.20 132.36,712.01 133.58,715.40 135.82,718.63 139.23,721.59 142.69,723.20 151.75,727.03 173.35,735.93 175.31,737.66 174.95,738.33 166.44,743.05 148.12,754.24 152.14,759.80 181.66,748.06 204.56,737.63 234.46,723.07 269.66,705.01 355.89,661.52 351.73,650.31"/>
    <poly id="103072894" type="landuse" color="194,194,130" fill="1" layer="-3.00" shape="222.90,205.53 223.02,200.28 229.96,189.17 205.57,159.72 189.60,141.07 161.12,162.79 162.81,165.10 165.78,171.08 167.48,178.07 166.00,214.03 166.28,215.32 168.11,217.94 169.27,218.70 250.76,222.24 250.80,220.93 250.35,219.78 249.55,219.10 246.95,218.02 222.64,216.87 222.71,213.56 222.90,205.53"/>
    <poly id="103073182" type="landuse" color="194,194,130" fill="1" layer="-3.00" shape="486.60,470.47 531.57,374.19 515.63,364.87 488.05,358.23 443.62,355.89 409.45,361.92 378.08,381.51 391.81,400.22 404.39,399.51 403.65,434.13 434.54,435.93 435.43,458.19 486.60,470.47"/>
    <poly id="103073557" type="water" color="181,209,209" fill="1" layer="-4.00" shape="618.63,407.91 616.64,411.40 649.50,426.65 674.40,436.76 693.37,443.66 716.18,451.23 737.56,457.25 764.24,463.76 793.60,470.05 815.06,475.12 815.08,469.93 794.33,466.26 765.10,460.01 738.53,453.53 717.30,447.54 694.63,440.05 675.71,433.14 650.95,423.04 618.63,407.91"/>
    <poly id="103073974" type="landuse" color="194,194,130" fill="1" layer="-3.00" shape="605.39,401.68 603.67,405.41 616.64,411.40 618.63,407.91 605.39,401.68"/>
    <poly id="103074040" type="landuse" color="194,194,130" fill="1" layer="-3.00" shape="777.73,175.43 768.45,182.06 745.27,200.14 729.31,213.78 707.35,236.01 693.01,251.69 676.15,272.40 661.37,291.45 652.16,304.96 639.38,324.46 626.92,344.58 615.04,367.45 606.47,384.60 612.10,387.05 625.09,358.28 635.59,340.00 653.06,313.23 661.43,297.77 673.59,281.85 700.22,251.03 715.16,235.87 729.18,219.82 779.72,176.21 777.73,175.43"/>
    <poly id="103074535" type="landuse" color="194,194,130" fill="1" layer="-3.00" shape="125.30,632.31 118.92,637.31 118.39,640.48 117.82,644.97 121.73,671.90 125.79,699.75 126.31,711.16 130.84,722.78 141.65,743.05 148.12,754.24 166.44,743.05 174.95,738.33 175.31,737.66 173.35,735.93 151.75,727.03 142.69,723.20 139.23,721.59 135.82,718.63 133.58,715.40 132.36,712.01 129.77,699.20 121.80,646.95 122.72,644.64 124.09,643.34 125.12,642.72 128.80,642.49 131.04,642.72 134.10,635.26 130.56,635.45 128.00,634.74 125.30,632.31"/>
    <poly id="265838076" type="building" color="255,230,230" fill="1" layer="-1.00" shape="607.34,363.88 612.70,366.68 621.05,350.77 615.73,348.00 607.34,363.88"/>
    <poly id="265838079" type="building" color="255,230,230" fill="1" layer="-1.00" shape="620.97,338.09 626.38,341.44 635.81,326.20 630.40,322.86 620.97,338.09"/>
    <poly id="265838081" type="building" color="255,230,230" fill="1" layer="-1.00" shape="633.75,317.31 638.30,320.05 647.65,304.31 643.19,301.64 633.75,317.31"/>
    <poly id="265838083" type="building" color="255,230,230" fill="1" layer="-1.00" shape="648.33,296.22 651.50,298.46 661.14,284.87 658.81,283.21 657.43,285.17 656.57,284.56 648.33,296.22"/>
    <poly id="265838594" type="building" color="255,230,230" fill="1" layer="-1.00" shape="577.13,401.04 579.53,402.17 581.43,398.17 579.25,396.93 577.13,401.04"/>
    <poly id="265838901" type="building" color="255,230,230" fill="1" layer="-1.00" shape="614.22,373.46 618.48,375.65 622.18,367.82 617.82,366.05 614.22,373.46"/>
    <poly id="265838959" type="building" color="255,230,230" fill="1" layer="-1.00" shape="650.80,314.40 652.85,310.86 650.69,309.54 648.63,313.16 650.80,314.40"/>
    <poly id="265839419" type="building" color="255,230,230" fill="1" layer="-1.00" shape="639.86,333.19 642.06,329.32 639.25,327.81 637.01,331.72 639.86,333.19"/>
    <poly id="265839462" type="building" color="255,230,230" fill="1" layer="-1.00" shape="638.39,352.13 636.13,350.84 633.61,355.33 635.65,356.65 638.39,352.13"/>
    <poly id="272730834" type="building" color="255,230,230" fill="1" layer="-1.00" shape="284.69,575.66 288.63,580.11 290.67,578.29 292.65,580.51 297.46,576.29 297.38,576.19 299.38,574.41 295.63,570.16 293.61,571.96 291.49,569.59 284.69,575.66"/>
    <poly id="272730837" type="building" color="255,230,230" fill="1" layer="-1.00" shape="405.59,661.21 406.30,662.96 406.14,663.02 408.87,669.84 409.52,669.58 410.67,672.45 417.13,669.87 413.33,660.58 409.69,662.08 408.80,659.91 405.59,661.21"/>