<?xml version="1.0" encoding="UTF-8"?>

<!-- generated on 19-12-2016 07:17:35 by SUMO gui Version 0.27.1
<?xml version="1.0" encoding="UTF-8"?>

<configuration xmlns:xsi="http://www.w3.org/2001/XMLSchema-instance" xsi:noNamespaceSchemaLocation="http://sumo.dlr.de/xsd/sumo-gui.exeConfiguration.xsd">

    <input>
        <net-file value="SUMO/k0001.net.xml"/>
        <route-files value="SUMO/k0001.rou.xml"/>
        <additional-files value="SUMO/k0001.det.xml,SUMO/k0001.poly.xml,SUMO/k0001.addEdge.xml,SUMO/k0001.addLane.xml"/>
    </input>

    <time>
        <begin value="0"/>
        <step-length value="0.1"/>
    </time>

    <traci_server>
        <remote-port value="8873"/>
    </traci_server>

    <gui_only>
        <gui-settings-file value="SUMO/k0001.gui.cfg"/>
    </gui_only>

</configuration>
-->

<e3Detector>
   <interval begin="0.00" end="900.00" id="ct_fc01" meanTravelTime="76.07" meanSpeed="0.17" meanHaltsPerVehicle="668.13" vehicleSum="16" meanSpeedWithin="0.15" meanHaltsPerVehicleWithin="300.50" meanDurationWithin="34.87" vehicleSumWithin="2" meanIntervalSpeedWithin="0.15" meanIntervalHaltsPerVehicleWithin="300.50" meanIntervalDurationWithin="34.87"/>
   <interval begin="900.00" end="1800.00" id="ct_fc01" meanTravelTime="62.42" meanSpeed="0.22" meanHaltsPerVehicle="530.82" vehicleSum="17" meanSpeedWithin="3.67" meanHaltsPerVehicleWithin="73.67" meanDurationWithin="27.41" vehicleSumWithin="3" meanIntervalSpeedWithin="3.67" meanIntervalHaltsPerVehicleWithin="73.67" meanIntervalDurationWithin="27.41"/>
   <interval begin="1800.00" end="2700.00" id="ct_fc01" meanTravelTime="64.52" meanSpeed="0.21" meanHaltsPerVehicle="553.53" vehicleSum="17" meanSpeedWithin="0.09" meanHaltsPerVehicleWithin="408.67" meanDurationWithin="45.30" vehicleSumWithin="3" meanIntervalSpeedWithin="0.09" meanIntervalHaltsPerVehicleWithin="408.67" meanIntervalDurationWithin="45.30"/>
   <interval begin="2700.00" end="3600.00" id="ct_fc01" meanTravelTime="81.23" meanSpeed="0.15" meanHaltsPerVehicle="716.63" vehicleSum="19" meanSpeedWithin="3.64" meanHaltsPerVehicleWithin="86.33" meanDurationWithin="29.75" vehicleSumWithin="3" meanIntervalSpeedWithin="3.64" meanIntervalHaltsPerVehicleWithin="86.33" meanIntervalDurationWithin="29.75"/>
   <interval begin="3600.00" end="4500.00" id="ct_fc01" meanTravelTime="73.35" meanSpeed="0.21" meanHaltsPerVehicle="635.75" vehicleSum="16" meanSpeedWithin="0.05" meanHaltsPerVehicleWithin="1045.00" meanDurationWithin="109.59" vehicleSumWithin="2" meanIntervalSpeedWithin="0.05" meanIntervalHaltsPerVehicleWithin="1045.00" meanIntervalDurationWithin="109.59"/>
   <interval begin="4500.00" end="5400.00" id="ct_fc01" meanTravelTime="116.08" meanSpeed="0.12" meanHaltsPerVehicle="1062.88" vehicleSum="17" meanSpeedWithin="0.09" meanHaltsPerVehicleWithin="456.00" meanDurationWithin="49.91" vehicleSumWithin="3" meanIntervalSpeedWithin="0.09" meanIntervalHaltsPerVehicleWithin="456.00" meanIntervalDurationWithin="49.91"/>
   <interval begin="5400.00" end="6300.00" id="ct_fc01" meanTravelTime="85.00" meanSpeed="0.18" meanHaltsPerVehicle="756.90" vehicleSum="20" meanSpeedWithin="4.47" meanHaltsPerVehicleWithin="0.00" meanDurationWithin="2.40" vehicleSumWithin="3" meanIntervalSpeedWithin="4.47" meanIntervalHaltsPerVehicleWithin="0.00" meanIntervalDurationWithin="2.40"/>
   <interval begin="6300.00" end="7200.00" id="ct_fc01" meanTravelTime="65.57" meanSpeed="0.21" meanHaltsPerVehicle="563.20" vehicleSum="20" meanSpeedWithin="-1.00" meanHaltsPerVehicleWithin="-1.00" meanDurationWithin="-1.00" vehicleSumWithin="0" meanIntervalSpeedWithin="-1.00" meanIntervalHaltsPerVehicleWithin="-1.00" meanIntervalDurationWithin="-1.00"/>
   <interval begin="7200.00" end="8100.00" id="ct_fc01" meanTravelTime="72.36" meanSpeed="0.20" meanHaltsPerVehicle="631.21" vehicleSum="14" meanSpeedWithin="0.11" meanHaltsPerVehicleWithin="445.00" meanDurationWithin="49.67" vehicleSumWithin="2" meanIntervalSpeedWithin="0.11" meanIntervalHaltsPerVehicleWithin="445.00" meanIntervalDurationWithin="49.67"/>
   <interval begin="8100.00" end="9000.00" id="ct_fc01" meanTravelTime="110.75" meanSpeed="0.11" meanHaltsPerVehicle="1013.82" vehicleSum="17" meanSpeedWithin="5.03" meanHaltsPerVehicleWithin="0.00" meanDurationWithin="0.84" vehicleSumWithin="2" meanIntervalSpeedWithin="5.03" meanIntervalHaltsPerVehicleWithin="0.00" meanIntervalDurationWithin="0.84"/>
   <interval begin="9000.00" end="9338.10" id="ct_fc01" meanTravelTime="33.71" meanSpeed="0.89" meanHaltsPerVehicle="247.40" vehicleSum="5" meanSpeedWithin="-1.00" meanHaltsPerVehicleWithin="-1.00" meanDurationWithin="-1.00" vehicleSumWithin="0" meanIntervalSpeedWithin="-1.00" meanIntervalHaltsPerVehicleWithin="-1.00" meanIntervalDurationWithin="-1.00"/>
</e3Detector>
