<?xml version="1.0" encoding="UTF-8"?>

<!-- generated on 19-12-2016 07:17:35 by SUMO gui Version 0.27.1
<?xml version="1.0" encoding="UTF-8"?>

<configuration xmlns:xsi="http://www.w3.org/2001/XMLSchema-instance" xsi:noNamespaceSchemaLocation="http://sumo.dlr.de/xsd/sumo-gui.exeConfiguration.xsd">

    <input>
        <net-file value="SUMO/k0001.net.xml"/>
        <route-files value="SUMO/k0001.rou.xml"/>
        <additional-files value="SUMO/k0001.det.xml,SUMO/k0001.poly.xml,SUMO/k0001.addEdge.xml,SUMO/k0001.addLane.xml"/>
    </input>

    <time>
        <begin value="0"/>
        <step-length value="0.1"/>
    </time>

    <traci_server>
        <remote-port value="8873"/>
    </traci_server>

    <gui_only>
        <gui-settings-file value="SUMO/k0001.gui.cfg"/>
    </gui_only>

</configuration>
-->

<e3Detector>
   <interval begin="0.00" end="900.00" id="ct_fc03" meanTravelTime="68.25" meanSpeed="0.70" meanHaltsPerVehicle="533.86" vehicleSum="7" meanSpeedWithin="0.48" meanHaltsPerVehicleWithin="526.00" meanDurationWithin="62.48" vehicleSumWithin="1" meanIntervalSpeedWithin="0.48" meanIntervalHaltsPerVehicleWithin="526.00" meanIntervalDurationWithin="62.48"/>
   <interval begin="900.00" end="1800.00" id="ct_fc03" meanTravelTime="65.95" meanSpeed="0.88" meanHaltsPerVehicle="514.25" vehicleSum="8" meanSpeedWithin="-1.00" meanHaltsPerVehicleWithin="-1.00" meanDurationWithin="-1.00" vehicleSumWithin="0" meanIntervalSpeedWithin="-1.00" meanIntervalHaltsPerVehicleWithin="-1.00" meanIntervalDurationWithin="-1.00"/>
   <interval begin="1800.00" end="2700.00" id="ct_fc03" meanTravelTime="71.71" meanSpeed="0.60" meanHaltsPerVehicle="566.71" vehicleSum="7" meanSpeedWithin="-1.00" meanHaltsPerVehicleWithin="-1.00" meanDurationWithin="-1.00" vehicleSumWithin="0" meanIntervalSpeedWithin="-1.00" meanIntervalHaltsPerVehicleWithin="-1.00" meanIntervalDurationWithin="-1.00"/>
   <interval begin="2700.00" end="3600.00" id="ct_fc03" meanTravelTime="84.60" meanSpeed="0.70" meanHaltsPerVehicle="700.14" vehicleSum="7" meanSpeedWithin="-1.00" meanHaltsPerVehicleWithin="-1.00" meanDurationWithin="-1.00" vehicleSumWithin="0" meanIntervalSpeedWithin="-1.00" meanIntervalHaltsPerVehicleWithin="-1.00" meanIntervalDurationWithin="-1.00"/>
   <interval begin="3600.00" end="4500.00" id="ct_fc03" meanTravelTime="96.66" meanSpeed="0.49" meanHaltsPerVehicle="814.43" vehicleSum="7" meanSpeedWithin="0.48" meanHaltsPerVehicleWithin="525.00" meanDurationWithin="62.43" vehicleSumWithin="1" meanIntervalSpeedWithin="0.48" meanIntervalHaltsPerVehicleWithin="525.00" meanIntervalDurationWithin="62.43"/>
   <interval begin="4500.00" end="5400.00" id="ct_fc03" meanTravelTime="97.03" meanSpeed="0.79" meanHaltsPerVehicle="829.75" vehicleSum="8" meanSpeedWithin="-1.00" meanHaltsPerVehicleWithin="-1.00" meanDurationWithin="-1.00" vehicleSumWithin="0" meanIntervalSpeedWithin="-1.00" meanIntervalHaltsPerVehicleWithin="-1.00" meanIntervalDurationWithin="-1.00"/>
   <interval begin="5400.00" end="6300.00" id="ct_fc03" meanTravelTime="76.55" meanSpeed="0.90" meanHaltsPerVehicle="620.29" vehicleSum="7" meanSpeedWithin="0.48" meanHaltsPerVehicleWithin="525.00" meanDurationWithin="62.47" vehicleSumWithin="1" meanIntervalSpeedWithin="0.48" meanIntervalHaltsPerVehicleWithin="525.00" meanIntervalDurationWithin="62.47"/>
   <interval begin="6300.00" end="7200.00" id="ct_fc03" meanTravelTime="76.71" meanSpeed="0.59" meanHaltsPerVehicle="619.63" vehicleSum="8" meanSpeedWithin="-1.00" meanHaltsPerVehicleWithin="-1.00" meanDurationWithin="-1.00" vehicleSumWithin="0" meanIntervalSpeedWithin="-1.00" meanIntervalHaltsPerVehicleWithin="-1.00" meanIntervalDurationWithin="-1.00"/>
   <interval begin="7200.00" end="8100.00" id="ct_fc03" meanTravelTime="68.61" meanSpeed="1.19" meanHaltsPerVehicle="548.25" vehicleSum="8" meanSpeedWithin="-1.00" meanHaltsPerVehicleWithin="-1.00" meanDurationWithin="-1.00" vehicleSumWithin="0" meanIntervalSpeedWithin="-1.00" meanIntervalHaltsPerVehicleWithin="-1.00" meanIntervalDurationWithin="-1.00"/>
   <interval begin="8100.00" end="9000.00" id="ct_fc03" meanTravelTime="105.32" meanSpeed="0.43" meanHaltsPerVehicle="906.71" vehicleSum="7" meanSpeedWithin="-1.00" meanHaltsPerVehicleWithin="-1.00" meanDurationWithin="-1.00" vehicleSumWithin="0" meanIntervalSpeedWithin="-1.00" meanIntervalHaltsPerVehicleWithin="-1.00" meanIntervalDurationWithin="-1.00"/>
   <interval begin="9000.00" end="9338.10" id="ct_fc03" meanTravelTime="-1.00" meanSpeed="-1.00" meanHaltsPerVehicle="-1.00" vehicleSum="0" meanSpeedWithin="-1.00" meanHaltsPerVehicleWithin="-1.00" meanDurationWithin="-1.00" vehicleSumWithin="0" meanIntervalSpeedWithin="-1.00" meanIntervalHaltsPerVehicleWithin="-1.00" meanIntervalDurationWithin="-1.00"/>
</e3Detector>
