<?xml version="1.0" encoding="UTF-8"?>

<!-- generated on 19-12-2016 07:17:35 by SUMO gui Version 0.27.1
<?xml version="1.0" encoding="UTF-8"?>

<configuration xmlns:xsi="http://www.w3.org/2001/XMLSchema-instance" xsi:noNamespaceSchemaLocation="http://sumo.dlr.de/xsd/sumo-gui.exeConfiguration.xsd">

    <input>
        <net-file value="SUMO/k0001.net.xml"/>
        <route-files value="SUMO/k0001.rou.xml"/>
        <additional-files value="SUMO/k0001.det.xml,SUMO/k0001.poly.xml,SUMO/k0001.addEdge.xml,SUMO/k0001.addLane.xml"/>
    </input>

    <time>
        <begin value="0"/>
        <step-length value="0.1"/>
    </time>

    <traci_server>
        <remote-port value="8873"/>
    </traci_server>

    <gui_only>
        <gui-settings-file value="SUMO/k0001.gui.cfg"/>
    </gui_only>

</configuration>
-->

<e3Detector>
   <interval begin="0.00" end="900.00" id="pt_fc01" meanTravelTime="57.53" meanSpeed="0.35" meanHaltsPerVehicle="382.00" vehicleSum="1" meanSpeedWithin="-1.00" meanHaltsPerVehicleWithin="-1.00" meanDurationWithin="-1.00" vehicleSumWithin="0" meanIntervalSpeedWithin="-1.00" meanIntervalHaltsPerVehicleWithin="-1.00" meanIntervalDurationWithin="-1.00"/>
   <interval begin="900.00" end="1800.00" id="pt_fc01" meanTravelTime="85.14" meanSpeed="0.23" meanHaltsPerVehicle="658.00" vehicleSum="1" meanSpeedWithin="-1.00" meanHaltsPerVehicleWithin="-1.00" meanDurationWithin="-1.00" vehicleSumWithin="0" meanIntervalSpeedWithin="-1.00" meanIntervalHaltsPerVehicleWithin="-1.00" meanIntervalDurationWithin="-1.00"/>
   <interval begin="1800.00" end="2700.00" id="pt_fc01" meanTravelTime="61.27" meanSpeed="0.33" meanHaltsPerVehicle="419.00" vehicleSum="1" meanSpeedWithin="-1.00" meanHaltsPerVehicleWithin="-1.00" meanDurationWithin="-1.00" vehicleSumWithin="0" meanIntervalSpeedWithin="-1.00" meanIntervalHaltsPerVehicleWithin="-1.00" meanIntervalDurationWithin="-1.00"/>
   <interval begin="2700.00" end="3600.00" id="pt_fc01" meanTravelTime="94.85" meanSpeed="0.21" meanHaltsPerVehicle="755.00" vehicleSum="1" meanSpeedWithin="-1.00" meanHaltsPerVehicleWithin="-1.00" meanDurationWithin="-1.00" vehicleSumWithin="0" meanIntervalSpeedWithin="-1.00" meanIntervalHaltsPerVehicleWithin="-1.00" meanIntervalDurationWithin="-1.00"/>
   <interval begin="3600.00" end="4500.00" id="pt_fc01" meanTravelTime="93.23" meanSpeed="0.21" meanHaltsPerVehicle="739.00" vehicleSum="1" meanSpeedWithin="-1.00" meanHaltsPerVehicleWithin="-1.00" meanDurationWithin="-1.00" vehicleSumWithin="0" meanIntervalSpeedWithin="-1.00" meanIntervalHaltsPerVehicleWithin="-1.00" meanIntervalDurationWithin="-1.00"/>
   <interval begin="4500.00" end="5400.00" id="pt_fc01" meanTravelTime="137.46" meanSpeed="0.14" meanHaltsPerVehicle="1181.00" vehicleSum="1" meanSpeedWithin="-1.00" meanHaltsPerVehicleWithin="-1.00" meanDurationWithin="-1.00" vehicleSumWithin="0" meanIntervalSpeedWithin="-1.00" meanIntervalHaltsPerVehicleWithin="-1.00" meanIntervalDurationWithin="-1.00"/>
   <interval begin="5400.00" end="6300.00" id="pt_fc01" meanTravelTime="110.65" meanSpeed="0.18" meanHaltsPerVehicle="911.00" vehicleSum="1" meanSpeedWithin="-1.00" meanHaltsPerVehicleWithin="-1.00" meanDurationWithin="-1.00" vehicleSumWithin="0" meanIntervalSpeedWithin="-1.00" meanIntervalHaltsPerVehicleWithin="-1.00" meanIntervalDurationWithin="-1.00"/>
   <interval begin="6300.00" end="7200.00" id="pt_fc01" meanTravelTime="120.20" meanSpeed="0.17" meanHaltsPerVehicle="1009.00" vehicleSum="1" meanSpeedWithin="-1.00" meanHaltsPerVehicleWithin="-1.00" meanDurationWithin="-1.00" vehicleSumWithin="0" meanIntervalSpeedWithin="-1.00" meanIntervalHaltsPerVehicleWithin="-1.00" meanIntervalDurationWithin="-1.00"/>
   <interval begin="7200.00" end="8100.00" id="pt_fc01" meanTravelTime="66.37" meanSpeed="0.30" meanHaltsPerVehicle="470.00" vehicleSum="1" meanSpeedWithin="-1.00" meanHaltsPerVehicleWithin="-1.00" meanDurationWithin="-1.00" vehicleSumWithin="0" meanIntervalSpeedWithin="-1.00" meanIntervalHaltsPerVehicleWithin="-1.00" meanIntervalDurationWithin="-1.00"/>
   <interval begin="8100.00" end="9000.00" id="pt_fc01" meanTravelTime="98.34" meanSpeed="0.20" meanHaltsPerVehicle="790.00" vehicleSum="1" meanSpeedWithin="-1.00" meanHaltsPerVehicleWithin="-1.00" meanDurationWithin="-1.00" vehicleSumWithin="0" meanIntervalSpeedWithin="-1.00" meanIntervalHaltsPerVehicleWithin="-1.00" meanIntervalDurationWithin="-1.00"/>
   <interval begin="9000.00" end="9338.10" id="pt_fc01" meanTravelTime="-1.00" meanSpeed="-1.00" meanHaltsPerVehicle="-1.00" vehicleSum="0" meanSpeedWithin="-1.00" meanHaltsPerVehicleWithin="-1.00" meanDurationWithin="-1.00" vehicleSumWithin="0" meanIntervalSpeedWithin="-1.00" meanIntervalHaltsPerVehicleWithin="-1.00" meanIntervalDurationWithin="-1.00"/>
</e3Detector>
