<?xml version="1.0" encoding="UTF-8"?>

<!-- generated on 19-12-2016 07:17:35 by SUMO gui Version 0.27.1
<?xml version="1.0" encoding="UTF-8"?>

<configuration xmlns:xsi="http://www.w3.org/2001/XMLSchema-instance" xsi:noNamespaceSchemaLocation="http://sumo.dlr.de/xsd/sumo-gui.exeConfiguration.xsd">

    <input>
        <net-file value="SUMO/k0001.net.xml"/>
        <route-files value="SUMO/k0001.rou.xml"/>
        <additional-files value="SUMO/k0001.det.xml,SUMO/k0001.poly.xml,SUMO/k0001.addEdge.xml,SUMO/k0001.addLane.xml"/>
    </input>

    <time>
        <begin value="0"/>
        <step-length value="0.1"/>
    </time>

    <traci_server>
        <remote-port value="8873"/>
    </traci_server>

    <gui_only>
        <gui-settings-file value="SUMO/k0001.gui.cfg"/>
    </gui_only>

</configuration>
-->

<e3Detector>
   <interval begin="0.00" end="900.00" id="pt_fc02" meanTravelTime="93.57" meanSpeed="0.54" meanHaltsPerVehicle="504.50" vehicleSum="2" meanSpeedWithin="0.99" meanHaltsPerVehicleWithin="56.00" meanDurationWithin="39.06" vehicleSumWithin="1" meanIntervalSpeedWithin="0.99" meanIntervalHaltsPerVehicleWithin="56.00" meanIntervalDurationWithin="39.06"/>
   <interval begin="900.00" end="1800.00" id="pt_fc02" meanTravelTime="85.35" meanSpeed="0.61" meanHaltsPerVehicle="421.00" vehicleSum="4" meanSpeedWithin="-1.00" meanHaltsPerVehicleWithin="-1.00" meanDurationWithin="-1.00" vehicleSumWithin="0" meanIntervalSpeedWithin="-1.00" meanIntervalHaltsPerVehicleWithin="-1.00" meanIntervalDurationWithin="-1.00"/>
   <interval begin="1800.00" end="2700.00" id="pt_fc02" meanTravelTime="95.26" meanSpeed="0.53" meanHaltsPerVehicle="521.00" vehicleSum="3" meanSpeedWithin="0.99" meanHaltsPerVehicleWithin="58.00" meanDurationWithin="39.25" vehicleSumWithin="1" meanIntervalSpeedWithin="0.99" meanIntervalHaltsPerVehicleWithin="58.00" meanIntervalDurationWithin="39.25"/>
   <interval begin="2700.00" end="3600.00" id="pt_fc02" meanTravelTime="118.00" meanSpeed="0.44" meanHaltsPerVehicle="744.50" vehicleSum="4" meanSpeedWithin="-1.00" meanHaltsPerVehicleWithin="-1.00" meanDurationWithin="-1.00" vehicleSumWithin="0" meanIntervalSpeedWithin="-1.00" meanIntervalHaltsPerVehicleWithin="-1.00" meanIntervalDurationWithin="-1.00"/>
   <interval begin="3600.00" end="4500.00" id="pt_fc02" meanTravelTime="91.66" meanSpeed="0.61" meanHaltsPerVehicle="485.00" vehicleSum="3" meanSpeedWithin="0.99" meanHaltsPerVehicleWithin="58.00" meanDurationWithin="39.23" vehicleSumWithin="1" meanIntervalSpeedWithin="0.99" meanIntervalHaltsPerVehicleWithin="58.00" meanIntervalDurationWithin="39.23"/>
   <interval begin="4500.00" end="5400.00" id="pt_fc02" meanTravelTime="126.58" meanSpeed="0.41" meanHaltsPerVehicle="834.25" vehicleSum="4" meanSpeedWithin="-1.00" meanHaltsPerVehicleWithin="-1.00" meanDurationWithin="-1.00" vehicleSumWithin="0" meanIntervalSpeedWithin="-1.00" meanIntervalHaltsPerVehicleWithin="-1.00" meanIntervalDurationWithin="-1.00"/>
   <interval begin="5400.00" end="6300.00" id="pt_fc02" meanTravelTime="126.32" meanSpeed="0.45" meanHaltsPerVehicle="831.67" vehicleSum="3" meanSpeedWithin="0.99" meanHaltsPerVehicleWithin="57.00" meanDurationWithin="39.14" vehicleSumWithin="1" meanIntervalSpeedWithin="0.99" meanIntervalHaltsPerVehicleWithin="57.00" meanIntervalDurationWithin="39.14"/>
   <interval begin="6300.00" end="7200.00" id="pt_fc02" meanTravelTime="100.36" meanSpeed="0.53" meanHaltsPerVehicle="572.25" vehicleSum="4" meanSpeedWithin="-1.00" meanHaltsPerVehicleWithin="-1.00" meanDurationWithin="-1.00" vehicleSumWithin="0" meanIntervalSpeedWithin="-1.00" meanIntervalHaltsPerVehicleWithin="-1.00" meanIntervalDurationWithin="-1.00"/>
   <interval begin="7200.00" end="8100.00" id="pt_fc02" meanTravelTime="98.33" meanSpeed="0.53" meanHaltsPerVehicle="552.00" vehicleSum="3" meanSpeedWithin="0.99" meanHaltsPerVehicleWithin="57.00" meanDurationWithin="39.15" vehicleSumWithin="1" meanIntervalSpeedWithin="0.99" meanIntervalHaltsPerVehicleWithin="57.00" meanIntervalDurationWithin="39.15"/>
   <interval begin="8100.00" end="9000.00" id="pt_fc02" meanTravelTime="125.77" meanSpeed="0.41" meanHaltsPerVehicle="826.25" vehicleSum="4" meanSpeedWithin="-1.00" meanHaltsPerVehicleWithin="-1.00" meanDurationWithin="-1.00" vehicleSumWithin="0" meanIntervalSpeedWithin="-1.00" meanIntervalHaltsPerVehicleWithin="-1.00" meanIntervalDurationWithin="-1.00"/>
   <interval begin="9000.00" end="9338.10" id="pt_fc02" meanTravelTime="39.60" meanSpeed="1.27" meanHaltsPerVehicle="0.00" vehicleSum="1" meanSpeedWithin="-1.00" meanHaltsPerVehicleWithin="-1.00" meanDurationWithin="-1.00" vehicleSumWithin="0" meanIntervalSpeedWithin="-1.00" meanIntervalHaltsPerVehicleWithin="-1.00" meanIntervalDurationWithin="-1.00"/>
</e3Detector>
