<?xml version="1.0" encoding="UTF-8"?>

<!-- generated on 19-12-2016 07:17:35 by SUMO gui Version 0.27.1
<?xml version="1.0" encoding="UTF-8"?>

<configuration xmlns:xsi="http://www.w3.org/2001/XMLSchema-instance" xsi:noNamespaceSchemaLocation="http://sumo.dlr.de/xsd/sumo-gui.exeConfiguration.xsd">

    <input>
        <net-file value="SUMO/k0001.net.xml"/>
        <route-files value="SUMO/k0001.rou.xml"/>
        <additional-files value="SUMO/k0001.det.xml,SUMO/k0001.poly.xml,SUMO/k0001.addEdge.xml,SUMO/k0001.addLane.xml"/>
    </input>

    <time>
        <begin value="0"/>
        <step-length value="0.1"/>
    </time>

    <traci_server>
        <remote-port value="8873"/>
    </traci_server>

    <gui_only>
        <gui-settings-file value="SUMO/k0001.gui.cfg"/>
    </gui_only>

</configuration>
-->

<e3Detector>
   <interval begin="0.00" end="900.00" id="tt_fc12" meanTravelTime="50.28" meanSpeed="3.87" meanHaltsPerVehicle="307.45" vehicleSum="20" meanSpeedWithin="2.70" meanHaltsPerVehicleWithin="250.33" meanDurationWithin="39.41" vehicleSumWithin="9" meanIntervalSpeedWithin="2.70" meanIntervalHaltsPerVehicleWithin="250.33" meanIntervalDurationWithin="39.41"/>
   <interval begin="900.00" end="1800.00" id="tt_fc12" meanTravelTime="50.20" meanSpeed="3.74" meanHaltsPerVehicle="308.87" vehicleSum="15" meanSpeedWithin="6.60" meanHaltsPerVehicleWithin="212.38" meanDurationWithin="50.97" vehicleSumWithin="13" meanIntervalSpeedWithin="6.60" meanIntervalHaltsPerVehicleWithin="212.38" meanIntervalDurationWithin="50.97"/>
   <interval begin="1800.00" end="2700.00" id="tt_fc12" meanTravelTime="49.89" meanSpeed="3.90" meanHaltsPerVehicle="296.16" vehicleSum="19" meanSpeedWithin="9.82" meanHaltsPerVehicleWithin="39.43" meanDurationWithin="27.76" vehicleSumWithin="7" meanIntervalSpeedWithin="9.82" meanIntervalHaltsPerVehicleWithin="39.43" meanIntervalDurationWithin="27.76"/>
   <interval begin="2700.00" end="3600.00" id="tt_fc12" meanTravelTime="63.67" meanSpeed="2.85" meanHaltsPerVehicle="434.90" vehicleSum="20" meanSpeedWithin="3.95" meanHaltsPerVehicleWithin="212.89" meanDurationWithin="39.57" vehicleSumWithin="9" meanIntervalSpeedWithin="3.95" meanIntervalHaltsPerVehicleWithin="212.89" meanIntervalDurationWithin="39.57"/>
   <interval begin="3600.00" end="4500.00" id="tt_fc12" meanTravelTime="55.20" meanSpeed="3.80" meanHaltsPerVehicle="355.31" vehicleSum="16" meanSpeedWithin="1.25" meanHaltsPerVehicleWithin="434.54" meanDurationWithin="50.69" vehicleSumWithin="13" meanIntervalSpeedWithin="1.25" meanIntervalHaltsPerVehicleWithin="434.54" meanIntervalDurationWithin="50.69"/>
   <interval begin="4500.00" end="5400.00" id="tt_fc12" meanTravelTime="73.56" meanSpeed="3.57" meanHaltsPerVehicle="547.36" vehicleSum="22" meanSpeedWithin="6.31" meanHaltsPerVehicleWithin="239.92" meanDurationWithin="52.57" vehicleSumWithin="12" meanIntervalSpeedWithin="6.31" meanIntervalHaltsPerVehicleWithin="239.92" meanIntervalDurationWithin="52.57"/>
   <interval begin="5400.00" end="6300.00" id="tt_fc12" meanTravelTime="78.11" meanSpeed="2.76" meanHaltsPerVehicle="580.47" vehicleSum="19" meanSpeedWithin="2.62" meanHaltsPerVehicleWithin="292.69" meanDurationWithin="40.35" vehicleSumWithin="13" meanIntervalSpeedWithin="2.62" meanIntervalHaltsPerVehicleWithin="292.69" meanIntervalDurationWithin="40.35"/>
   <interval begin="6300.00" end="7200.00" id="tt_fc12" meanTravelTime="53.30" meanSpeed="4.66" meanHaltsPerVehicle="345.15" vehicleSum="20" meanSpeedWithin="8.75" meanHaltsPerVehicleWithin="79.00" meanDurationWithin="39.08" vehicleSumWithin="10" meanIntervalSpeedWithin="8.75" meanIntervalHaltsPerVehicleWithin="79.00" meanIntervalDurationWithin="39.08"/>
   <interval begin="7200.00" end="8100.00" id="tt_fc12" meanTravelTime="60.15" meanSpeed="3.41" meanHaltsPerVehicle="408.06" vehicleSum="18" meanSpeedWithin="4.81" meanHaltsPerVehicleWithin="341.25" meanDurationWithin="59.74" vehicleSumWithin="16" meanIntervalSpeedWithin="4.81" meanIntervalHaltsPerVehicleWithin="341.25" meanIntervalDurationWithin="59.74"/>
   <interval begin="8100.00" end="9000.00" id="tt_fc12" meanTravelTime="83.24" meanSpeed="2.03" meanHaltsPerVehicle="627.85" vehicleSum="20" meanSpeedWithin="4.07" meanHaltsPerVehicleWithin="325.35" meanDurationWithin="52.90" vehicleSumWithin="17" meanIntervalSpeedWithin="4.07" meanIntervalHaltsPerVehicleWithin="325.35" meanIntervalDurationWithin="52.90"/>
   <interval begin="9000.00" end="9338.10" id="tt_fc12" meanTravelTime="86.21" meanSpeed="1.60" meanHaltsPerVehicle="662.00" vehicleSum="1" meanSpeedWithin="-1.00" meanHaltsPerVehicleWithin="-1.00" meanDurationWithin="-1.00" vehicleSumWithin="0" meanIntervalSpeedWithin="-1.00" meanIntervalHaltsPerVehicleWithin="-1.00" meanIntervalDurationWithin="-1.00"/>
</e3Detector>
