<?xml version="1.0" encoding="UTF-8"?>

<!-- generated on 19-12-2016 07:17:35 by SUMO gui Version 0.27.1
<?xml version="1.0" encoding="UTF-8"?>

<configuration xmlns:xsi="http://www.w3.org/2001/XMLSchema-instance" xsi:noNamespaceSchemaLocation="http://sumo.dlr.de/xsd/sumo-gui.exeConfiguration.xsd">

    <input>
        <net-file value="SUMO/k0001.net.xml"/>
        <route-files value="SUMO/k0001.rou.xml"/>
        <additional-files value="SUMO/k0001.det.xml,SUMO/k0001.poly.xml,SUMO/k0001.addEdge.xml,SUMO/k0001.addLane.xml"/>
    </input>

    <time>
        <begin value="0"/>
        <step-length value="0.1"/>
    </time>

    <traci_server>
        <remote-port value="8873"/>
    </traci_server>

    <gui_only>
        <gui-settings-file value="SUMO/k0001.gui.cfg"/>
    </gui_only>

</configuration>
-->

<e3Detector>
   <interval begin="0.00" end="900.00" id="tt_fc10" meanTravelTime="43.97" meanSpeed="4.46" meanHaltsPerVehicle="237.76" vehicleSum="58" meanSpeedWithin="3.58" meanHaltsPerVehicleWithin="195.22" meanDurationWithin="36.46" vehicleSumWithin="9" meanIntervalSpeedWithin="3.58" meanIntervalHaltsPerVehicleWithin="195.22" meanIntervalDurationWithin="36.46"/>
   <interval begin="900.00" end="1800.00" id="tt_fc10" meanTravelTime="40.16" meanSpeed="4.56" meanHaltsPerVehicle="197.65" vehicleSum="63" meanSpeedWithin="5.96" meanHaltsPerVehicleWithin="92.67" meanDurationWithin="19.15" vehicleSumWithin="3" meanIntervalSpeedWithin="5.96" meanIntervalHaltsPerVehicleWithin="92.67" meanIntervalDurationWithin="19.15"/>
   <interval begin="1800.00" end="2700.00" id="tt_fc10" meanTravelTime="41.74" meanSpeed="4.59" meanHaltsPerVehicle="215.09" vehicleSum="66" meanSpeedWithin="5.93" meanHaltsPerVehicleWithin="92.00" meanDurationWithin="19.13" vehicleSumWithin="3" meanIntervalSpeedWithin="5.93" meanIntervalHaltsPerVehicleWithin="92.00" meanIntervalDurationWithin="19.13"/>
   <interval begin="2700.00" end="3600.00" id="tt_fc10" meanTravelTime="52.76" meanSpeed="3.67" meanHaltsPerVehicle="323.07" vehicleSum="60" meanSpeedWithin="4.79" meanHaltsPerVehicleWithin="140.14" meanDurationWithin="32.77" vehicleSumWithin="7" meanIntervalSpeedWithin="4.79" meanIntervalHaltsPerVehicleWithin="140.14" meanIntervalDurationWithin="32.77"/>
   <interval begin="3600.00" end="4500.00" id="tt_fc10" meanTravelTime="54.48" meanSpeed="3.84" meanHaltsPerVehicle="342.78" vehicleSum="64" meanSpeedWithin="1.51" meanHaltsPerVehicleWithin="434.54" meanDurationWithin="52.03" vehicleSumWithin="13" meanIntervalSpeedWithin="1.51" meanIntervalHaltsPerVehicleWithin="434.54" meanIntervalDurationWithin="52.03"/>
   <interval begin="4500.00" end="5400.00" id="tt_fc10" meanTravelTime="81.24" meanSpeed="2.72" meanHaltsPerVehicle="606.57" vehicleSum="75" meanSpeedWithin="9.72" meanHaltsPerVehicleWithin="0.00" meanDurationWithin="7.89" vehicleSumWithin="1" meanIntervalSpeedWithin="9.72" meanIntervalHaltsPerVehicleWithin="0.00" meanIntervalDurationWithin="7.89"/>
   <interval begin="5400.00" end="6300.00" id="tt_fc10" meanTravelTime="61.88" meanSpeed="3.69" meanHaltsPerVehicle="416.33" vehicleSum="70" meanSpeedWithin="2.06" meanHaltsPerVehicleWithin="317.08" meanDurationWithin="41.30" vehicleSumWithin="12" meanIntervalSpeedWithin="2.06" meanIntervalHaltsPerVehicleWithin="317.08" meanIntervalDurationWithin="41.30"/>
   <interval begin="6300.00" end="7200.00" id="tt_fc10" meanTravelTime="43.21" meanSpeed="4.74" meanHaltsPerVehicle="231.16" vehicleSum="69" meanSpeedWithin="5.99" meanHaltsPerVehicleWithin="79.67" meanDurationWithin="18.01" vehicleSumWithin="3" meanIntervalSpeedWithin="5.99" meanIntervalHaltsPerVehicleWithin="79.67" meanIntervalDurationWithin="18.01"/>
   <interval begin="7200.00" end="8100.00" id="tt_fc10" meanTravelTime="54.35" meanSpeed="3.86" meanHaltsPerVehicle="341.81" vehicleSum="68" meanSpeedWithin="4.55" meanHaltsPerVehicleWithin="279.67" meanDurationWithin="37.84" vehicleSumWithin="3" meanIntervalSpeedWithin="4.55" meanIntervalHaltsPerVehicleWithin="279.67" meanIntervalDurationWithin="37.84"/>
   <interval begin="8100.00" end="9000.00" id="tt_fc10" meanTravelTime="76.80" meanSpeed="3.03" meanHaltsPerVehicle="566.68" vehicleSum="62" meanSpeedWithin="4.43" meanHaltsPerVehicleWithin="133.86" meanDurationWithin="25.84" vehicleSumWithin="7" meanIntervalSpeedWithin="4.43" meanIntervalHaltsPerVehicleWithin="133.86" meanIntervalDurationWithin="25.84"/>
   <interval begin="9000.00" end="9338.10" id="tt_fc10" meanTravelTime="47.73" meanSpeed="4.36" meanHaltsPerVehicle="286.00" vehicleSum="7" meanSpeedWithin="-1.00" meanHaltsPerVehicleWithin="-1.00" meanDurationWithin="-1.00" vehicleSumWithin="0" meanIntervalSpeedWithin="-1.00" meanIntervalHaltsPerVehicleWithin="-1.00" meanIntervalDurationWithin="-1.00"/>
</e3Detector>
