<?xml version="1.0" encoding="UTF-8"?>

<!-- generated on 19-12-2016 07:17:35 by SUMO gui Version 0.27.1
<?xml version="1.0" encoding="UTF-8"?>

<configuration xmlns:xsi="http://www.w3.org/2001/XMLSchema-instance" xsi:noNamespaceSchemaLocation="http://sumo.dlr.de/xsd/sumo-gui.exeConfiguration.xsd">

    <input>
        <net-file value="SUMO/k0001.net.xml"/>
        <route-files value="SUMO/k0001.rou.xml"/>
        <additional-files value="SUMO/k0001.det.xml,SUMO/k0001.poly.xml,SUMO/k0001.addEdge.xml,SUMO/k0001.addLane.xml"/>
    </input>

    <time>
        <begin value="0"/>
        <step-length value="0.1"/>
    </time>

    <traci_server>
        <remote-port value="8873"/>
    </traci_server>

    <gui_only>
        <gui-settings-file value="SUMO/k0001.gui.cfg"/>
    </gui_only>

</configuration>
-->

<e3Detector>
   <interval begin="0.00" end="900.00" id="tt_fc01" meanTravelTime="55.16" meanSpeed="4.87" meanHaltsPerVehicle="365.44" vehicleSum="9" meanSpeedWithin="4.16" meanHaltsPerVehicleWithin="284.20" meanDurationWithin="39.35" vehicleSumWithin="5" meanIntervalSpeedWithin="4.16" meanIntervalHaltsPerVehicleWithin="284.20" meanIntervalDurationWithin="39.35"/>
   <interval begin="900.00" end="1800.00" id="tt_fc01" meanTravelTime="56.79" meanSpeed="4.41" meanHaltsPerVehicle="388.09" vehicleSum="11" meanSpeedWithin="4.66" meanHaltsPerVehicleWithin="237.60" meanDurationWithin="40.27" vehicleSumWithin="5" meanIntervalSpeedWithin="4.66" meanIntervalHaltsPerVehicleWithin="237.60" meanIntervalDurationWithin="40.27"/>
   <interval begin="1800.00" end="2700.00" id="tt_fc01" meanTravelTime="57.65" meanSpeed="3.52" meanHaltsPerVehicle="390.20" vehicleSum="10" meanSpeedWithin="4.87" meanHaltsPerVehicleWithin="209.25" meanDurationWithin="31.71" vehicleSumWithin="4" meanIntervalSpeedWithin="4.87" meanIntervalHaltsPerVehicleWithin="209.25" meanIntervalDurationWithin="31.71"/>
   <interval begin="2700.00" end="3600.00" id="tt_fc01" meanTravelTime="72.64" meanSpeed="2.79" meanHaltsPerVehicle="521.60" vehicleSum="10" meanSpeedWithin="4.22" meanHaltsPerVehicleWithin="280.00" meanDurationWithin="39.48" vehicleSumWithin="5" meanIntervalSpeedWithin="4.22" meanIntervalHaltsPerVehicleWithin="280.00" meanIntervalDurationWithin="39.48"/>
   <interval begin="3600.00" end="4500.00" id="tt_fc01" meanTravelTime="77.90" meanSpeed="2.17" meanHaltsPerVehicle="574.27" vehicleSum="11" meanSpeedWithin="4.91" meanHaltsPerVehicleWithin="243.50" meanDurationWithin="45.19" vehicleSumWithin="6" meanIntervalSpeedWithin="4.91" meanIntervalHaltsPerVehicleWithin="243.50" meanIntervalDurationWithin="45.19"/>
   <interval begin="4500.00" end="5400.00" id="tt_fc01" meanTravelTime="115.94" meanSpeed="1.52" meanHaltsPerVehicle="922.73" vehicleSum="11" meanSpeedWithin="3.64" meanHaltsPerVehicleWithin="340.00" meanDurationWithin="45.28" vehicleSumWithin="6" meanIntervalSpeedWithin="3.64" meanIntervalHaltsPerVehicleWithin="340.00" meanIntervalDurationWithin="45.28"/>
   <interval begin="5400.00" end="6300.00" id="tt_fc01" meanTravelTime="83.86" meanSpeed="2.05" meanHaltsPerVehicle="625.55" vehicleSum="11" meanSpeedWithin="5.57" meanHaltsPerVehicleWithin="416.10" meanDurationWithin="73.82" vehicleSumWithin="10" meanIntervalSpeedWithin="5.57" meanIntervalHaltsPerVehicleWithin="416.10" meanIntervalDurationWithin="73.82"/>
   <interval begin="6300.00" end="7200.00" id="tt_fc01" meanTravelTime="66.54" meanSpeed="2.60" meanHaltsPerVehicle="465.33" vehicleSum="12" meanSpeedWithin="5.97" meanHaltsPerVehicleWithin="134.00" meanDurationWithin="23.36" vehicleSumWithin="3" meanIntervalSpeedWithin="5.97" meanIntervalHaltsPerVehicleWithin="134.00" meanIntervalDurationWithin="23.36"/>
   <interval begin="7200.00" end="8100.00" id="tt_fc01" meanTravelTime="69.62" meanSpeed="2.52" meanHaltsPerVehicle="496.56" vehicleSum="9" meanSpeedWithin="6.35" meanHaltsPerVehicleWithin="187.50" meanDurationWithin="45.19" vehicleSumWithin="6" meanIntervalSpeedWithin="6.35" meanIntervalHaltsPerVehicleWithin="187.50" meanIntervalDurationWithin="45.19"/>
   <interval begin="8100.00" end="9000.00" id="tt_fc01" meanTravelTime="90.16" meanSpeed="2.01" meanHaltsPerVehicle="686.45" vehicleSum="11" meanSpeedWithin="3.58" meanHaltsPerVehicleWithin="346.50" meanDurationWithin="45.27" vehicleSumWithin="6" meanIntervalSpeedWithin="3.58" meanIntervalHaltsPerVehicleWithin="346.50" meanIntervalDurationWithin="45.27"/>
   <interval begin="9000.00" end="9338.10" id="tt_fc01" meanTravelTime="85.20" meanSpeed="1.68" meanHaltsPerVehicle="658.00" vehicleSum="1" meanSpeedWithin="-1.00" meanHaltsPerVehicleWithin="-1.00" meanDurationWithin="-1.00" vehicleSumWithin="0" meanIntervalSpeedWithin="-1.00" meanIntervalHaltsPerVehicleWithin="-1.00" meanIntervalDurationWithin="-1.00"/>
</e3Detector>
