<?xml version="1.0" encoding="UTF-8"?>

<!-- generated on 19-12-2016 07:17:35 by SUMO gui Version 0.27.1
<?xml version="1.0" encoding="UTF-8"?>

<configuration xmlns:xsi="http://www.w3.org/2001/XMLSchema-instance" xsi:noNamespaceSchemaLocation="http://sumo.dlr.de/xsd/sumo-gui.exeConfiguration.xsd">

    <input>
        <net-file value="SUMO/k0001.net.xml"/>
        <route-files value="SUMO/k0001.rou.xml"/>
        <additional-files value="SUMO/k0001.det.xml,SUMO/k0001.poly.xml,SUMO/k0001.addEdge.xml,SUMO/k0001.addLane.xml"/>
    </input>

    <time>
        <begin value="0"/>
        <step-length value="0.1"/>
    </time>

    <traci_server>
        <remote-port value="8873"/>
    </traci_server>

    <gui_only>
        <gui-settings-file value="SUMO/k0001.gui.cfg"/>
    </gui_only>

</configuration>
-->

<e3Detector>
   <interval begin="0.00" end="900.00" id="tt_fc02" meanTravelTime="52.98" meanSpeed="3.97" meanHaltsPerVehicle="298.16" vehicleSum="37" meanSpeedWithin="4.14" meanHaltsPerVehicleWithin="284.20" meanDurationWithin="38.75" vehicleSumWithin="5" meanIntervalSpeedWithin="4.14" meanIntervalHaltsPerVehicleWithin="284.20" meanIntervalDurationWithin="38.75"/>
   <interval begin="900.00" end="1800.00" id="tt_fc02" meanTravelTime="46.14" meanSpeed="4.85" meanHaltsPerVehicle="235.92" vehicleSum="39" meanSpeedWithin="4.25" meanHaltsPerVehicleWithin="279.33" meanDurationWithin="44.62" vehicleSumWithin="6" meanIntervalSpeedWithin="4.25" meanIntervalHaltsPerVehicleWithin="279.33" meanIntervalDurationWithin="44.62"/>
   <interval begin="1800.00" end="2700.00" id="tt_fc02" meanTravelTime="47.80" meanSpeed="4.73" meanHaltsPerVehicle="252.82" vehicleSum="38" meanSpeedWithin="4.86" meanHaltsPerVehicleWithin="209.25" meanDurationWithin="31.12" vehicleSumWithin="4" meanIntervalSpeedWithin="4.86" meanIntervalHaltsPerVehicleWithin="209.25" meanIntervalDurationWithin="31.12"/>
   <interval begin="2700.00" end="3600.00" id="tt_fc02" meanTravelTime="59.83" meanSpeed="3.87" meanHaltsPerVehicle="371.35" vehicleSum="37" meanSpeedWithin="4.20" meanHaltsPerVehicleWithin="280.00" meanDurationWithin="38.89" vehicleSumWithin="5" meanIntervalSpeedWithin="4.20" meanIntervalHaltsPerVehicleWithin="280.00" meanIntervalDurationWithin="38.89"/>
   <interval begin="3600.00" end="4500.00" id="tt_fc02" meanTravelTime="64.63" meanSpeed="3.48" meanHaltsPerVehicle="415.98" vehicleSum="45" meanSpeedWithin="4.16" meanHaltsPerVehicleWithin="257.80" meanDurationWithin="38.80" vehicleSumWithin="5" meanIntervalSpeedWithin="4.16" meanIntervalHaltsPerVehicleWithin="257.80" meanIntervalDurationWithin="38.80"/>
   <interval begin="4500.00" end="5400.00" id="tt_fc02" meanTravelTime="92.75" meanSpeed="2.31" meanHaltsPerVehicle="682.59" vehicleSum="44" meanSpeedWithin="3.61" meanHaltsPerVehicleWithin="340.00" meanDurationWithin="44.69" vehicleSumWithin="6" meanIntervalSpeedWithin="3.61" meanIntervalHaltsPerVehicleWithin="340.00" meanIntervalDurationWithin="44.69"/>
   <interval begin="5400.00" end="6300.00" id="tt_fc02" meanTravelTime="75.69" meanSpeed="3.08" meanHaltsPerVehicle="523.65" vehicleSum="49" meanSpeedWithin="6.18" meanHaltsPerVehicleWithin="258.50" meanDurationWithin="37.52" vehicleSumWithin="2" meanIntervalSpeedWithin="6.18" meanIntervalHaltsPerVehicleWithin="258.50" meanIntervalDurationWithin="37.52"/>
   <interval begin="6300.00" end="7200.00" id="tt_fc02" meanTravelTime="51.59" meanSpeed="4.40" meanHaltsPerVehicle="289.17" vehicleSum="48" meanSpeedWithin="5.28" meanHaltsPerVehicleWithin="205.75" meanDurationWithin="34.38" vehicleSumWithin="4" meanIntervalSpeedWithin="5.28" meanIntervalHaltsPerVehicleWithin="205.75" meanIntervalDurationWithin="34.38"/>
   <interval begin="7200.00" end="8100.00" id="tt_fc02" meanTravelTime="57.91" meanSpeed="4.01" meanHaltsPerVehicle="352.50" vehicleSum="42" meanSpeedWithin="4.85" meanHaltsPerVehicleWithin="228.00" meanDurationWithin="34.34" vehicleSumWithin="4" meanIntervalSpeedWithin="4.85" meanIntervalHaltsPerVehicleWithin="228.00" meanIntervalDurationWithin="34.34"/>
   <interval begin="8100.00" end="9000.00" id="tt_fc02" meanTravelTime="78.94" meanSpeed="2.91" meanHaltsPerVehicle="555.12" vehicleSum="41" meanSpeedWithin="3.55" meanHaltsPerVehicleWithin="346.50" meanDurationWithin="44.67" vehicleSumWithin="6" meanIntervalSpeedWithin="3.55" meanIntervalHaltsPerVehicleWithin="346.50" meanIntervalDurationWithin="44.67"/>
   <interval begin="9000.00" end="9338.10" id="tt_fc02" meanTravelTime="62.63" meanSpeed="3.20" meanHaltsPerVehicle="394.80" vehicleSum="5" meanSpeedWithin="-1.00" meanHaltsPerVehicleWithin="-1.00" meanDurationWithin="-1.00" vehicleSumWithin="0" meanIntervalSpeedWithin="-1.00" meanIntervalHaltsPerVehicleWithin="-1.00" meanIntervalDurationWithin="-1.00"/>
</e3Detector>
