<?xml version="1.0" encoding="UTF-8"?>

<!-- generated on 19-12-2016 07:17:35 by SUMO gui Version 0.27.1
<?xml version="1.0" encoding="UTF-8"?>

<configuration xmlns:xsi="http://www.w3.org/2001/XMLSchema-instance" xsi:noNamespaceSchemaLocation="http://sumo.dlr.de/xsd/sumo-gui.exeConfiguration.xsd">

    <input>
        <net-file value="SUMO/k0001.net.xml"/>
        <route-files value="SUMO/k0001.rou.xml"/>
        <additional-files value="SUMO/k0001.det.xml,SUMO/k0001.poly.xml,SUMO/k0001.addEdge.xml,SUMO/k0001.addLane.xml"/>
    </input>

    <time>
        <begin value="0"/>
        <step-length value="0.1"/>
    </time>

    <traci_server>
        <remote-port value="8873"/>
    </traci_server>

    <gui_only>
        <gui-settings-file value="SUMO/k0001.gui.cfg"/>
    </gui_only>

</configuration>
-->

<e3Detector>
   <interval begin="0.00" end="900.00" id="tt_fc07" meanTravelTime="48.78" meanSpeed="9.57" meanHaltsPerVehicle="47.00" vehicleSum="2" meanSpeedWithin="9.44" meanHaltsPerVehicleWithin="127.73" meanDurationWithin="42.94" vehicleSumWithin="15" meanIntervalSpeedWithin="9.44" meanIntervalHaltsPerVehicleWithin="127.73" meanIntervalDurationWithin="42.94"/>
   <interval begin="900.00" end="1800.00" id="tt_fc07" meanTravelTime="58.01" meanSpeed="8.06" meanHaltsPerVehicle="137.00" vehicleSum="2" meanSpeedWithin="10.53" meanHaltsPerVehicleWithin="58.92" meanDurationWithin="32.67" vehicleSumWithin="12" meanIntervalSpeedWithin="10.53" meanIntervalHaltsPerVehicleWithin="58.92" meanIntervalDurationWithin="32.67"/>
   <interval begin="1800.00" end="2700.00" id="tt_fc07" meanTravelTime="84.35" meanSpeed="5.65" meanHaltsPerVehicle="405.00" vehicleSum="2" meanSpeedWithin="10.24" meanHaltsPerVehicleWithin="88.15" meanDurationWithin="35.48" vehicleSumWithin="13" meanIntervalSpeedWithin="10.24" meanIntervalHaltsPerVehicleWithin="88.15" meanIntervalDurationWithin="35.48"/>
   <interval begin="2700.00" end="3600.00" id="tt_fc07" meanTravelTime="57.11" meanSpeed="8.19" meanHaltsPerVehicle="125.50" vehicleSum="2" meanSpeedWithin="9.48" meanHaltsPerVehicleWithin="138.71" meanDurationWithin="40.62" vehicleSumWithin="14" meanIntervalSpeedWithin="9.48" meanIntervalHaltsPerVehicleWithin="138.71" meanIntervalDurationWithin="40.62"/>
   <interval begin="3600.00" end="4500.00" id="tt_fc07" meanTravelTime="63.81" meanSpeed="7.44" meanHaltsPerVehicle="195.00" vehicleSum="2" meanSpeedWithin="7.55" meanHaltsPerVehicleWithin="346.08" meanDurationWithin="66.97" vehicleSumWithin="24" meanIntervalSpeedWithin="7.55" meanIntervalHaltsPerVehicleWithin="346.08" meanIntervalDurationWithin="66.97"/>
   <interval begin="4500.00" end="5400.00" id="tt_fc07" meanTravelTime="112.09" meanSpeed="4.88" meanHaltsPerVehicle="677.00" vehicleSum="2" meanSpeedWithin="9.09" meanHaltsPerVehicleWithin="165.13" meanDurationWithin="43.36" vehicleSumWithin="16" meanIntervalSpeedWithin="9.09" meanIntervalHaltsPerVehicleWithin="165.13" meanIntervalDurationWithin="43.36"/>
   <interval begin="5400.00" end="6300.00" id="tt_fc07" meanTravelTime="77.43" meanSpeed="6.11" meanHaltsPerVehicle="331.50" vehicleSum="2" meanSpeedWithin="7.71" meanHaltsPerVehicleWithin="297.35" meanDurationWithin="59.53" vehicleSumWithin="20" meanIntervalSpeedWithin="7.71" meanIntervalHaltsPerVehicleWithin="297.35" meanIntervalDurationWithin="59.53"/>
   <interval begin="6300.00" end="7200.00" id="tt_fc07" meanTravelTime="47.04" meanSpeed="9.88" meanHaltsPerVehicle="15.00" vehicleSum="2" meanSpeedWithin="10.32" meanHaltsPerVehicleWithin="80.17" meanDurationWithin="32.82" vehicleSumWithin="12" meanIntervalSpeedWithin="10.32" meanIntervalHaltsPerVehicleWithin="80.17" meanIntervalDurationWithin="32.82"/>
   <interval begin="7200.00" end="8100.00" id="tt_fc07" meanTravelTime="78.83" meanSpeed="6.07" meanHaltsPerVehicle="344.50" vehicleSum="2" meanSpeedWithin="9.18" meanHaltsPerVehicleWithin="157.22" meanDurationWithin="47.82" vehicleSumWithin="18" meanIntervalSpeedWithin="9.18" meanIntervalHaltsPerVehicleWithin="157.22" meanIntervalDurationWithin="47.82"/>
   <interval begin="8100.00" end="9000.00" id="tt_fc07" meanTravelTime="102.11" meanSpeed="5.04" meanHaltsPerVehicle="578.50" vehicleSum="2" meanSpeedWithin="10.10" meanHaltsPerVehicleWithin="86.33" meanDurationWithin="40.17" vehicleSumWithin="15" meanIntervalSpeedWithin="10.10" meanIntervalHaltsPerVehicleWithin="86.33" meanIntervalDurationWithin="40.17"/>
   <interval begin="9000.00" end="9338.10" id="tt_fc07" meanTravelTime="-1.00" meanSpeed="-1.00" meanHaltsPerVehicle="-1.00" vehicleSum="0" meanSpeedWithin="-1.00" meanHaltsPerVehicleWithin="-1.00" meanDurationWithin="-1.00" vehicleSumWithin="0" meanIntervalSpeedWithin="-1.00" meanIntervalHaltsPerVehicleWithin="-1.00" meanIntervalDurationWithin="-1.00"/>
</e3Detector>
