<?xml version="1.0" encoding="UTF-8"?>

<!-- generated on 19-12-2016 07:17:35 by SUMO gui Version 0.27.1
<?xml version="1.0" encoding="UTF-8"?>

<configuration xmlns:xsi="http://www.w3.org/2001/XMLSchema-instance" xsi:noNamespaceSchemaLocation="http://sumo.dlr.de/xsd/sumo-gui.exeConfiguration.xsd">

    <input>
        <net-file value="SUMO/k0001.net.xml"/>
        <route-files value="SUMO/k0001.rou.xml"/>
        <additional-files value="SUMO/k0001.det.xml,SUMO/k0001.poly.xml,SUMO/k0001.addEdge.xml,SUMO/k0001.addLane.xml"/>
    </input>

    <time>
        <begin value="0"/>
        <step-length value="0.1"/>
    </time>

    <traci_server>
        <remote-port value="8873"/>
    </traci_server>

    <gui_only>
        <gui-settings-file value="SUMO/k0001.gui.cfg"/>
    </gui_only>

</configuration>
-->

<e3Detector>
   <interval begin="0.00" end="900.00" id="tt_fc08" meanTravelTime="67.97" meanSpeed="7.94" meanHaltsPerVehicle="246.21" vehicleSum="53" meanSpeedWithin="9.50" meanHaltsPerVehicleWithin="127.73" meanDurationWithin="42.35" vehicleSumWithin="15" meanIntervalSpeedWithin="9.50" meanIntervalHaltsPerVehicleWithin="127.73" meanIntervalDurationWithin="42.35"/>
   <interval begin="900.00" end="1800.00" id="tt_fc08" meanTravelTime="66.84" meanSpeed="7.82" meanHaltsPerVehicle="229.33" vehicleSum="48" meanSpeedWithin="10.62" meanHaltsPerVehicleWithin="58.92" meanDurationWithin="32.08" vehicleSumWithin="12" meanIntervalSpeedWithin="10.62" meanIntervalHaltsPerVehicleWithin="58.92" meanIntervalDurationWithin="32.08"/>
   <interval begin="1800.00" end="2700.00" id="tt_fc08" meanTravelTime="65.46" meanSpeed="7.90" meanHaltsPerVehicle="214.00" vehicleSum="51" meanSpeedWithin="10.15" meanHaltsPerVehicleWithin="95.50" meanDurationWithin="33.79" vehicleSumWithin="12" meanIntervalSpeedWithin="10.15" meanIntervalHaltsPerVehicleWithin="95.50" meanIntervalDurationWithin="33.79"/>
   <interval begin="2700.00" end="3600.00" id="tt_fc08" meanTravelTime="70.50" meanSpeed="7.85" meanHaltsPerVehicle="274.00" vehicleSum="53" meanSpeedWithin="9.55" meanHaltsPerVehicleWithin="138.71" meanDurationWithin="40.03" vehicleSumWithin="14" meanIntervalSpeedWithin="9.55" meanIntervalHaltsPerVehicleWithin="138.71" meanIntervalDurationWithin="40.03"/>
   <interval begin="3600.00" end="4500.00" id="tt_fc08" meanTravelTime="72.62" meanSpeed="7.44" meanHaltsPerVehicle="289.31" vehicleSum="55" meanSpeedWithin="7.59" meanHaltsPerVehicleWithin="346.08" meanDurationWithin="66.38" vehicleSumWithin="24" meanIntervalSpeedWithin="7.59" meanIntervalHaltsPerVehicleWithin="346.08" meanIntervalDurationWithin="66.38"/>
   <interval begin="4500.00" end="5400.00" id="tt_fc08" meanTravelTime="87.39" meanSpeed="6.37" meanHaltsPerVehicle="430.52" vehicleSum="54" meanSpeedWithin="9.14" meanHaltsPerVehicleWithin="165.13" meanDurationWithin="42.77" vehicleSumWithin="16" meanIntervalSpeedWithin="9.14" meanIntervalHaltsPerVehicleWithin="165.13" meanIntervalDurationWithin="42.77"/>
   <interval begin="5400.00" end="6300.00" id="tt_fc08" meanTravelTime="80.24" meanSpeed="7.12" meanHaltsPerVehicle="362.67" vehicleSum="57" meanSpeedWithin="7.74" meanHaltsPerVehicleWithin="297.35" meanDurationWithin="58.94" vehicleSumWithin="20" meanIntervalSpeedWithin="7.74" meanIntervalHaltsPerVehicleWithin="297.35" meanIntervalDurationWithin="58.94"/>
   <interval begin="6300.00" end="7200.00" id="tt_fc08" meanTravelTime="63.00" meanSpeed="8.48" meanHaltsPerVehicle="198.69" vehicleSum="54" meanSpeedWithin="10.41" meanHaltsPerVehicleWithin="80.17" meanDurationWithin="32.23" vehicleSumWithin="12" meanIntervalSpeedWithin="10.41" meanIntervalHaltsPerVehicleWithin="80.17" meanIntervalDurationWithin="32.23"/>
   <interval begin="7200.00" end="8100.00" id="tt_fc08" meanTravelTime="78.74" meanSpeed="6.85" meanHaltsPerVehicle="344.40" vehicleSum="53" meanSpeedWithin="9.24" meanHaltsPerVehicleWithin="157.22" meanDurationWithin="47.22" vehicleSumWithin="18" meanIntervalSpeedWithin="9.24" meanIntervalHaltsPerVehicleWithin="157.22" meanIntervalDurationWithin="47.22"/>
   <interval begin="8100.00" end="9000.00" id="tt_fc08" meanTravelTime="91.71" meanSpeed="5.95" meanHaltsPerVehicle="469.42" vehicleSum="53" meanSpeedWithin="10.62" meanHaltsPerVehicleWithin="66.91" meanDurationWithin="30.11" vehicleSumWithin="11" meanIntervalSpeedWithin="10.62" meanIntervalHaltsPerVehicleWithin="66.91" meanIntervalDurationWithin="30.11"/>
   <interval begin="9000.00" end="9338.10" id="tt_fc08" meanTravelTime="92.01" meanSpeed="5.16" meanHaltsPerVehicle="466.75" vehicleSum="4" meanSpeedWithin="-1.00" meanHaltsPerVehicleWithin="-1.00" meanDurationWithin="-1.00" vehicleSumWithin="0" meanIntervalSpeedWithin="-1.00" meanIntervalHaltsPerVehicleWithin="-1.00" meanIntervalDurationWithin="-1.00"/>
</e3Detector>
